@<TRIPOS>MOLECULE
CEL
   40    42     1     0     0
SMALL
bcc


@<TRIPOS>ATOM
      1 S1          -1.2350     0.2000    -4.7310 sy         1 CEL       1.271200
      2 C15         -1.0050     0.1290    -2.9750 ca         1 CEL      -0.264500
      3 C14         -1.6730    -0.8350    -2.2350 ca         1 CEL      -0.022000
      4 C13         -1.4900    -0.8810    -0.8620 ca         1 CEL      -0.135000
      5 C12         -0.6420     0.0330    -0.2560 ca         1 CEL       0.057800
      6 C17          0.0220     1.0010    -0.9990 ca         1 CEL      -0.135000
      7 C16         -0.1590     1.0480    -2.3700 ca         1 CEL      -0.022000
      8 N2          -0.4620    -0.0190     1.1450 na         1 CEL       0.175300
      9 C3           0.7060    -0.0050     1.8470 cc         1 CEL      -0.018300
     10 C5           2.0370    -0.0830     1.2450 ca         1 CEL      -0.050000
     11 C10          2.3260    -0.9980     0.2330 ca         1 CEL      -0.100500
     12 C9           3.6030    -1.0770    -0.2960 ca         1 CEL      -0.130500
     13 C8           4.6290    -0.2540     0.1650 ca         1 CEL      -0.055300
     14 C11          6.0030    -0.3260    -0.4310 c3         1 CEL      -0.051800
     15 C7           4.3340     0.6500     1.1830 ca         1 CEL      -0.130500
     16 C6           3.0580     0.7380     1.7170 ca         1 CEL      -0.100500
     17 C2           0.3450     0.0240     3.1740 cd         1 CEL      -0.251300
     18 C1          -1.0560     0.0150     3.1530 cd         1 CEL       0.202600
     19 C4          -1.9700     0.0310     4.3250 c3         1 CEL       0.657600
     20 F3          -3.2510     0.0190     3.9600 f          1 CEL      -0.226967
     21 F2          -1.7640    -1.0280     5.1190 f          1 CEL      -0.226967
     22 F1          -1.7730     1.1190     5.0810 f          1 CEL      -0.226967
     23 N1          -1.5340    -0.0130     1.9300 nc         1 CEL      -0.453800
     24 N3          -2.3930     1.3690    -4.8480 n8         1 CEL      -0.894700
     25 O2          -0.0420     0.7560    -5.3500 o          1 CEL      -0.611800
     26 O1          -1.7010    -1.1090    -5.1650 o          1 CEL      -0.611800
     27 H14C        -2.3220    -1.5560    -2.7110 ha         1 CEL       0.162000
     28 H13C        -1.9920    -1.6350    -0.2720 ha         1 CEL       0.159000
     29 H17C         0.6660     1.7220    -0.5150 ha         1 CEL       0.159000
     30 H16C         0.3520     1.8040    -2.9500 ha         1 CEL       0.162000
     31 H10C         1.5610    -1.6700    -0.1350 ha         1 CEL       0.138500
     32 HC9          3.8050    -1.8010    -1.0760 ha         1 CEL       0.136500
     33 H111         6.1110     0.3930    -1.2460 hc         1 CEL       0.047367
     34 H112         6.7710    -0.0950     0.3070 hc         1 CEL       0.047367
     35 H113         6.2100    -1.3140    -0.8400 hc         1 CEL       0.047367
     36 HC7          5.1120     1.3000     1.5650 ha         1 CEL       0.136500
     37 HC6          2.8560     1.4580     2.5000 ha         1 CEL       0.138500
     38 HC2          1.0060     0.0140     4.0250 ha         1 CEL       0.181000
     39 HN31        -2.4160     1.7800    -5.7770 hn         1 CEL       0.421300
     40 HN32        -3.3170     1.0390    -4.5860 hn         1 CEL       0.421300
@<TRIPOS>BOND
     1     1     2 1   
     2     1    24 1   
     3     1    25 2   
     4     1    26 2   
     5     2     3 ar  
     6     2     7 ar  
     7     3     4 ar  
     8     3    27 1   
     9     4     5 ar  
    10     4    28 1   
    11     5     6 ar  
    12     5     8 1   
    13     6     7 ar  
    14     6    29 1   
    15     7    30 1   
    16     8     9 1   
    17     8    23 1   
    18     9    10 1   
    19     9    17 2   
    20    10    11 ar  
    21    10    16 ar  
    22    11    12 ar  
    23    11    31 1   
    24    12    13 ar  
    25    12    32 1   
    26    13    14 1   
    27    13    15 ar  
    28    14    33 1   
    29    14    34 1   
    30    14    35 1   
    31    15    16 ar  
    32    15    36 1   
    33    16    37 1   
    34    17    18 1   
    35    17    38 1   
    36    18    19 1   
    37    18    23 2   
    38    19    20 1   
    39    19    21 1   
    40    19    22 1   
    41    24    39 1   
    42    24    40 1   
@<TRIPOS>SUBSTRUCTURE
     1 CEL         1 TEMP              0 ****  ****    0 ROOT
