@<TRIPOS>MOLECULE
CEM
   24    23     1     0     0
SMALL
No Charge or Current Charge


@<TRIPOS>ATOM
      1 O1          -1.0950    -0.8860    -1.0050 oh         1 CEM      -0.648000
      2 C2          -0.0920    -0.0230    -1.5330 c3         1 CEM       0.179300
      3 C3           0.8590     0.3820    -0.3580 c3         1 CEM       0.027500
      4 N4           0.2770     0.0320     0.9930 nu         1 CEM      -0.783200
      5 C5          -0.6830     0.8000     1.6380 c2         1 CEM       0.138000
      6 C6          -1.1040     0.4580     2.8670 ce         1 CEM      -0.542200
      7 C7          -0.6490    -0.7070     3.6670 c          1 CEM       0.599100
      8 O8          -1.0960    -0.9390     4.7820 o          1 CEM      -0.612100
      9 C9          -0.7750     1.1920    -2.1960 c3         1 CEM      -0.250400
     10 C10         -1.5790     0.7840    -3.4300 c          1 CEM       0.590900
     11 O11         -2.7770     0.5190    -3.4030 o          1 CEM      -0.543100
     12 C12          2.2950    -0.2210    -0.5860 c          1 CEM       0.730000
     13 O13          2.9450     0.1760    -1.5430 o          1 CEM      -0.703500
     14 O14          2.7250    -1.0270     0.2320 o          1 CEM      -0.703500
     15 HO1         -0.9450    -0.7800    -0.0310 ho         1 CEM       0.439000
     16 H2           0.4960    -0.5480    -2.3030 h1         1 CEM       0.097700
     17 H3           1.0090     1.4690    -0.3930 h1         1 CEM       0.048700
     18 HN4          0.8860    -0.5510     1.5800 hn         1 CEM       0.522000
     19 H5          -1.0640     1.6690     1.0910 h4         1 CEM       0.161000
     20 H6          -1.8590     1.0700     3.3580 ha         1 CEM       0.182000
     21 H7           0.1220    -1.3670     3.2110 h4         1 CEM      -0.040800
     22 H91         -1.4230     1.7000    -1.4720 hc         1 CEM       0.065200
     23 H92          0.0330     1.8520    -2.5330 hc         1 CEM       0.065200
     24 H10         -1.0030     0.7390    -4.3810 h4         1 CEM      -0.018800
@<TRIPOS>BOND
     1     1     2 1   
     2     1    15 1   
     3     2     3 1   
     4     2     9 1   
     5     2    16 1   
     6     3     4 1   
     7     3    12 1   
     8     3    17 1   
     9     4     5 1   
    10     4    18 1   
    11     5     6 2   
    12     5    19 1   
    13     6     7 1   
    14     6    20 1   
    15     7     8 2   
    16     7    21 1   
    17     9    10 1   
    18     9    22 1   
    19     9    23 1   
    20    10    11 2   
    21    10    24 1   
    22    12    13 1   
    23    12    14 1   
@<TRIPOS>SUBSTRUCTURE
     1 CEM         1 TEMP              0 ****  ****    0 ROOT
