@<TRIPOS>MOLECULE
CEM
   24    23     1     0     0
SMALL
bcc


@<TRIPOS>ATOM
      1 O1          -0.1520    -1.2510    -1.7070 oh         1 CEM      -0.585800
      2 C2           0.1810     0.1160    -1.6310 c3         1 CEM       0.156100
      3 C3           1.0410     0.4190    -0.3980 c3         1 CEM       0.027500
      4 N4           0.3560     0.1070     0.8370 nu         1 CEM      -0.728000
      5 C5          -0.3880     0.9640     1.5300 c2         1 CEM       0.188000
      6 C6          -1.0070     0.7840     2.7410 ce         1 CEM      -0.492200
      7 C7          -0.9750    -0.4280     3.4900 c          1 CEM       0.599100
      8 O8          -1.5230    -0.6120     4.5700 o          1 CEM      -0.612100
      9 C9          -1.0750     0.9800    -1.7250 c3         1 CEM      -0.250400
     10 C10         -1.8260     0.6530    -2.9800 c          1 CEM       0.590900
     11 O11         -3.0080     0.4220    -3.0400 o          1 CEM      -0.543100
     12 C12          2.3580    -0.4020    -0.4820 c          1 CEM       0.940600
     13 O13          3.0670    -0.1620    -1.4720 o          1 CEM      -0.808800
     14 O14          2.5730    -1.2160     0.4350 o          1 CEM      -0.808800
     15 HO1         -0.6930    -1.4770    -0.9410 ho         1 CEM       0.400000
     16 H2           0.8040     0.3250    -2.5030 h1         1 CEM       0.097700
     17 H3           1.2970     1.4840    -0.4120 h1         1 CEM       0.048700
     18 HN4          0.6690    -0.7580     1.2580 hn         1 CEM       0.466800
     19 H5          -0.5070     1.9330     1.0550 h4         1 CEM       0.111000
     20 H6          -1.5620     1.6230     3.1380 ha         1 CEM       0.132000
     21 H7          -0.4040    -1.2600     3.0330 h4         1 CEM      -0.040800
     22 H91         -1.7350     0.8630    -0.8630 hc         1 CEM       0.065200
     23 H92         -0.7820     2.0350    -1.7870 hc         1 CEM       0.065200
     24 H10         -1.2050     0.6490    -3.8950 h4         1 CEM      -0.018800
@<TRIPOS>BOND
     1     1     2 1   
     2     1    15 1   
     3     2     3 1   
     4     2     9 1   
     5     2    16 1   
     6     3     4 1   
     7     3    12 1   
     8     3    17 1   
     9     4     5 1   
    10     4    18 1   
    11     5     6 2   
    12     5    19 1   
    13     6     7 1   
    14     6    20 1   
    15     7     8 2   
    16     7    21 1   
    17     9    10 1   
    18     9    22 1   
    19     9    23 1   
    20    10    11 2   
    21    10    24 1   
    22    12    13 1   
    23    12    14 1   
@<TRIPOS>SUBSTRUCTURE
     1 CEM         1 TEMP              0 ****  ****    0 ROOT
