@<TRIPOS>MOLECULE
CEN
   42    43     1     0     0
SMALL
No Charge or Current Charge


@<TRIPOS>ATOM
      1 S1           0.4900    -1.5290    -1.1740 ss         1 CEN      -0.492000
      2 C2           2.3330    -1.5840    -1.3030 c6         1 CEN       0.141800
      3 C3           3.1630    -0.3750    -0.8480 c2         1 CEN      -0.264400
      4 C4           2.6380     0.7350    -0.2280 ce         1 CEN       0.038400
      5 N5           1.1920     0.7210    -0.2130 nj         1 CEN      -0.290000
      6 C6           0.4940    -0.4460     0.3220 cy         1 CEN       0.188700
      7 C7          -0.7500     0.4850     0.5750 cy         1 CEN       0.021700
      8 C8           0.1340     1.6190    -0.0520 c          1 CEN       0.570000
      9 O9          -0.0090     2.8140    -0.2790 o          1 CEN      -0.463000
     10 C13          4.6460    -0.6280    -1.0760 c3         1 CEN       0.233800
     11 N14         -2.0410     0.1600    -0.0180 ns         1 CEN      -0.491900
     12 C15         -2.9120    -0.7650     0.5070 c          1 CEN       0.608100
     13 O16         -2.6770    -1.3650     1.5470 o          1 CEN      -0.610100
     14 C17         -4.1790    -1.0100    -0.3200 c3         1 CEN      -0.158400
     15 C1           6.5330    -1.3520     0.2190 c          1 CEN       0.591100
     16 O2           7.2950    -1.2630    -0.7340 o          1 CEN      -0.512000
     17 O3           5.1930    -1.0810     0.1720 os         1 CEN      -0.452100
     18 C            6.9640    -1.8140     1.6060 c3         1 CEN      -0.159100
     19 C5          -5.4250    -0.3840     0.3500 c3         1 CEN      -0.046400
     20 C9          -6.7260    -0.6040    -0.4620 c3         1 CEN      -0.207400
     21 C11         -7.9200     0.0400     0.2650 c          1 CEN       0.719000
     22 O           -8.5260    -0.6310     1.0860 o          1 CEN      -0.745500
     23 O1          -8.1760     1.2110     0.0280 o          1 CEN      -0.745500
     24 C10          3.4000     1.9620     0.2980 c          1 CEN       0.725200
     25 O4           4.6110     2.0510     0.1420 o          1 CEN      -0.689000
     26 O5           2.7690     2.8240     0.8960 o          1 CEN      -0.689000
     27 HC21         2.5680    -1.8200    -2.3510 h1         1 CEN       0.055200
     28 HC22         2.6510    -2.4530    -0.7090 h1         1 CEN       0.055200
     29 HC6          0.9620    -0.9350     1.1830 h2         1 CEN       0.092700
     30 HC7         -0.9050     0.6790     1.6410 h1         1 CEN       0.110700
     31 H131         5.1490     0.2790    -1.4330 h1         1 CEN       0.069200
     32 H132         4.7890    -1.3920    -1.8530 h1         1 CEN       0.069200
     33 H14         -2.3190     0.5880    -0.8940 hn         1 CEN       0.326500
     34 H171        -4.0650    -0.5730    -1.3190 hc         1 CEN       0.047200
     35 H172        -4.3380    -2.0920    -0.4060 hc         1 CEN       0.047200
     36 HC1          6.6800    -1.0490     2.3370 hc         1 CEN       0.056367
     37 HC2          6.3400    -2.6630     1.9060 hc         1 CEN       0.056367
     38 HC3          8.0320    -2.0540     1.6590 hc         1 CEN       0.056367
     39 HC51        -5.5490    -0.8110     1.3540 hc         1 CEN       0.053700
     40 HC52        -5.2600     0.6930     0.4830 hc         1 CEN       0.053700
     41 HC91        -6.5600    -0.1200    -1.4320 hc         1 CEN       0.013700
     42 HC92        -6.8580    -1.6910    -0.5280 hc         1 CEN       0.013700
@<TRIPOS>BOND
     1     1     2 1   
     2     1     6 1   
     3     2     3 1   
     4     2    27 1   
     5     2    28 1   
     6     3     4 2   
     7     3    10 1   
     8     4     5 1   
     9     4    24 1   
    10     5     6 1   
    11     5     8 1   
    12     6     7 1   
    13     6    29 1   
    14     7     8 1   
    15     7    11 1   
    16     7    30 1   
    17     8     9 2   
    18    10    17 1   
    19    10    31 1   
    20    10    32 1   
    21    11    12 1   
    22    11    33 1   
    23    12    13 2   
    24    12    14 1   
    25    14    19 1   
    26    14    34 1   
    27    14    35 1   
    28    15    16 2   
    29    15    17 1   
    30    15    18 1   
    31    18    36 1   
    32    18    37 1   
    33    18    38 1   
    34    19    20 1   
    35    19    39 1   
    36    19    40 1   
    37    20    21 1   
    38    20    41 1   
    39    20    42 1   
    40    21    22 1   
    41    21    23 1   
    42    24    25 1   
    43    24    26 1   
@<TRIPOS>SUBSTRUCTURE
     1 CEN         1 TEMP              0 ****  ****    0 ROOT
