@<TRIPOS>MOLECULE
CEN
   42    43     1     0     0
SMALL
bcc


@<TRIPOS>ATOM
      1 S1           0.5570    -1.5430     0.0200 ss         1 CEN      -0.396200
      2 C2           2.3760    -1.6170     0.0300 c6         1 CEN       0.093900
      3 C3           3.0700    -0.3150    -0.2940 c2         1 CEN      -0.264400
      4 C4           2.5360     0.8980    -0.0780 ce         1 CEN       0.038400
      5 N5           1.2730     0.9860     0.5020 nj         1 CEN      -0.357000
      6 C6           0.5100    -0.0940     1.0910 cy         1 CEN       0.140800
      7 C7          -0.7530     0.7960     0.9520 cy         1 CEN       0.021700
      8 C8           0.1830     1.7590     0.2080 c          1 CEN       0.712500
      9 O9           0.0360     2.7570    -0.4410 o          1 CEN      -0.538500
     10 C13          4.4380    -0.4950    -0.8690 c3         1 CEN       0.210600
     11 N14         -1.8630     0.3200     0.2020 ns         1 CEN      -0.558900
     12 C15         -3.0180    -0.1030     0.7730 c          1 CEN       0.675100
     13 O16         -3.2040    -0.0570     1.9770 o          1 CEN      -0.610100
     14 C17         -4.0330    -0.6580    -0.1980 c3         1 CEN      -0.158400
     15 C1           6.4060    -1.6690    -0.2650 c          1 CEN       0.640100
     16 O2           6.9010    -1.4310    -1.3390 o          1 CEN      -0.561000
     17 O3           5.1950    -1.2600     0.0890 os         1 CEN      -0.428900
     18 C            7.0870    -2.4230     0.8390 c3         1 CEN      -0.159100
     19 C5          -5.4720    -0.2930     0.1480 c3         1 CEN      -0.046400
     20 C9          -6.4500    -0.9380    -0.8190 c3         1 CEN      -0.207400
     21 C11         -7.9380    -0.6340    -0.5730 c          1 CEN       0.929600
     22 O           -8.7470    -1.2910    -1.2610 o          1 CEN      -0.850800
     23 O1          -8.2230     0.2400     0.2680 o          1 CEN      -0.850800
     24 C10          3.1960     2.2510    -0.3590 c          1 CEN       0.935800
     25 O4           3.7690     2.3860    -1.4520 o          1 CEN      -0.794300
     26 O5           3.0870     3.0720     0.5630 o          1 CEN      -0.794300
     27 HC21         2.6380    -2.3680    -0.7180 h1         1 CEN       0.055200
     28 HC22         2.7030    -2.0100     0.9950 h1         1 CEN       0.055200
     29 HC6          0.8190    -0.3470     2.1060 h2         1 CEN       0.092700
     30 HC7         -1.0860     1.1790     1.9170 h1         1 CEN       0.110700
     31 H131         4.9320     0.4530    -1.0680 h1         1 CEN       0.069200
     32 H132         4.3790    -1.0520    -1.8090 h1         1 CEN       0.069200
     33 H14         -1.7650     0.2350    -0.7970 hn         1 CEN       0.326500
     34 H171        -3.7980    -0.3420    -1.2180 hc         1 CEN       0.047200
     35 H172        -3.9180    -1.7480    -0.1870 hc         1 CEN       0.047200
     36 HC1          7.5930    -1.7130     1.4970 hc         1 CEN       0.056367
     37 HC2          6.3830    -2.9890     1.4440 hc         1 CEN       0.056367
     38 HC3          7.8390    -3.0920     0.4280 hc         1 CEN       0.056367
     39 HC51        -5.6930    -0.6090     1.1690 hc         1 CEN       0.053700
     40 HC52        -5.5900     0.7930     0.1280 hc         1 CEN       0.053700
     41 HC91        -6.2100    -0.6300    -1.8450 hc         1 CEN       0.013700
     42 HC92        -6.3130    -2.0260    -0.8130 hc         1 CEN       0.013700
@<TRIPOS>BOND
     1     1     2 1   
     2     1     6 1   
     3     2     3 1   
     4     2    27 1   
     5     2    28 1   
     6     3     4 2   
     7     3    10 1   
     8     4     5 1   
     9     4    24 1   
    10     5     6 1   
    11     5     8 1   
    12     6     7 1   
    13     6    29 1   
    14     7     8 1   
    15     7    11 1   
    16     7    30 1   
    17     8     9 2   
    18    10    17 1   
    19    10    31 1   
    20    10    32 1   
    21    11    12 1   
    22    11    33 1   
    23    12    13 2   
    24    12    14 1   
    25    14    19 1   
    26    14    34 1   
    27    14    35 1   
    28    15    16 2   
    29    15    17 1   
    30    15    18 1   
    31    18    36 1   
    32    18    37 1   
    33    18    38 1   
    34    19    20 1   
    35    19    39 1   
    36    19    40 1   
    37    20    21 1   
    38    20    41 1   
    39    20    42 1   
    40    21    22 1   
    41    21    23 1   
    42    24    25 1   
    43    24    26 1   
@<TRIPOS>SUBSTRUCTURE
     1 CEN         1 TEMP              0 ****  ****    0 ROOT
