@<TRIPOS>MOLECULE
CEO
   35    36     1     0     0
SMALL
No Charge or Current Charge


@<TRIPOS>ATOM
      1 S1          -1.6130     1.7590     0.7670 ss         1 CEO      -0.511000
      2 C2          -2.6120     0.6880     1.8870 c6         1 CEO       0.110800
      3 C3          -1.8590    -0.6180     2.1600 ce         1 CEO      -0.221800
      4 C5          -2.5560    -1.7650     2.3580 c2         1 CEO      -0.255000
      5 C4          -0.3670    -0.5140     2.1340 ce         1 CEO       0.448600
      6 C9           0.5650    -1.6340     1.5840 c          1 CEO       0.643700
      7 O4A          0.0890    -2.7000     1.2040 o          1 CEO      -0.693000
      8 O4B          1.7720    -1.4120     1.4830 o          1 CEO      -0.693000
      9 N5           0.1530     0.6090     2.5670 n2         1 CEO      -0.636900
     10 C6          -0.1130     1.8480     1.8300 c6         1 CEO       0.282500
     11 C7           1.1450     2.2270     0.9910 c3         1 CEO       0.012700
     12 C8           2.3130     2.6390     1.9120 c          1 CEO       0.587900
     13 O9           3.4630     2.2150     1.8150 o          1 CEO      -0.514100
     14 N10          1.5580     1.1480     0.0490 ns         1 CEO      -0.469900
     15 C11          1.4690     1.2110    -1.3220 c          1 CEO       0.608100
     16 O12          1.1480     2.2350    -1.9110 o          1 CEO      -0.619100
     17 C13          1.8080    -0.0920    -2.0590 c3         1 CEO      -0.094100
     18 C14          0.6050    -0.8090    -2.6310 cc         1 CEO      -0.174300
     19 C15          0.5110    -1.4550    -3.8380 cd         1 CEO      -0.134000
     20 C16         -0.7640    -2.0320    -4.0780 cd         1 CEO      -0.135000
     21 C17         -1.6560    -1.8340    -3.0560 cc         1 CEO      -0.258000
     22 S19         -0.9210    -0.9140    -1.7470 ss         1 CEO       0.216000
     23 HC21        -2.7950     1.2280     2.8270 h1         1 CEO       0.062700
     24 HC22        -3.5810     0.4890     1.4050 h1         1 CEO       0.062700
     25 H3'1        -2.0680    -2.7210     2.5510 ha         1 CEO       0.169500
     26 H3'2        -3.6460    -1.7820     2.3470 ha         1 CEO       0.169500
     27 HC6         -0.3090     2.6500     2.5590 h2         1 CEO       0.068700
     28 HC7          0.8890     3.1300     0.4230 h1         1 CEO       0.090700
     29 HC8          2.0500     3.3790     2.7010 h4         1 CEO      -0.016800
     30 H10          1.8380     0.2540     0.4510 hn         1 CEO       0.346500
     31 H131         2.4900     0.1580    -2.8800 hc         1 CEO       0.076200
     32 H132         2.3170    -0.7760    -1.3710 hc         1 CEO       0.076200
     33 H15          1.3340    -1.5180    -4.5450 ha         1 CEO       0.130000
     34 H16         -1.0090    -2.5780    -4.9850 ha         1 CEO       0.122000
     35 H17         -2.6850    -2.1590    -2.9700 h4         1 CEO       0.140000
@<TRIPOS>BOND
     1     1     2 1   
     2     1    10 1   
     3     2     3 1   
     4     2    23 1   
     5     2    24 1   
     6     3     4 2   
     7     3     5 1   
     8     4    25 1   
     9     4    26 1   
    10     5     6 1   
    11     5     9 2   
    12     6     7 1   
    13     6     8 1   
    14     9    10 1   
    15    10    11 1   
    16    10    27 1   
    17    11    12 1   
    18    11    14 1   
    19    11    28 1   
    20    12    13 2   
    21    12    29 1   
    22    14    15 1   
    23    14    30 1   
    24    15    16 2   
    25    15    17 1   
    26    17    18 1   
    27    17    31 1   
    28    17    32 1   
    29    18    19 2   
    30    18    22 1   
    31    19    20 1   
    32    19    33 1   
    33    20    21 2   
    34    20    34 1   
    35    21    22 1   
    36    21    35 1   
@<TRIPOS>SUBSTRUCTURE
     1 CEO         1 TEMP              0 ****  ****    0 ROOT
