@<TRIPOS>MOLECULE
CEO
   35    36     1     0     0
SMALL
abcg2


@<TRIPOS>ATOM
      1 S1          -1.8420     1.2120     1.2610 ss         1 CEO      -0.511000
      2 C2          -2.3900     0.6810     2.9080 c6         1 CEO       0.110800
      3 C3          -1.5780    -0.5050     3.3190 ce         1 CEO      -0.221800
      4 C5          -2.1450    -1.6250     3.7670 c2         1 CEO      -0.255000
      5 C4          -0.1080    -0.3640     3.2200 ce         1 CEO       0.448600
      6 C9           0.7680    -1.3680     3.9640 c          1 CEO       0.643700
      7 O4A          0.9580    -2.4420     3.3720 o          1 CEO      -0.693000
      8 O4B          1.1960    -0.9960     5.0670 o          1 CEO      -0.693000
      9 N5           0.5070     0.5540     2.5890 n2         1 CEO      -0.636900
     10 C6          -0.1320     1.5580     1.7930 c6         1 CEO       0.282500
     11 C7           0.7310     1.7840     0.5500 c3         1 CEO       0.012700
     12 C8           2.1030     2.2520     0.9950 c          1 CEO       0.587900
     13 O9           3.1350     1.8010     0.5760 o          1 CEO      -0.514100
     14 N10          0.8000     0.6070    -0.2590 ns         1 CEO      -0.469900
     15 C11          0.8660     0.6320    -1.6020 c          1 CEO       0.608100
     16 O12          0.7760     1.6550    -2.2590 o          1 CEO      -0.619100
     17 C13          1.0740    -0.7280    -2.2480 c3         1 CEO      -0.094100
     18 C14          0.3850    -0.8440    -3.5630 cc         1 CEO      -0.174300
     19 C15          0.9350    -0.8250    -4.8080 cd         1 CEO      -0.134000
     20 C16         -0.0300    -0.9340    -5.8480 cd         1 CEO      -0.135000
     21 C17         -1.3000    -1.0310    -5.3710 cc         1 CEO      -0.258000
     22 S19         -1.3290    -0.9960    -3.6560 ss         1 CEO       0.216000
     23 HC21        -2.2710     1.5110     3.6090 h1         1 CEO       0.062700
     24 HC22        -3.4510     0.4420     2.8480 h1         1 CEO       0.062700
     25 H3'1        -1.5700    -2.4960     4.0490 ha         1 CEO       0.169500
     26 H3'2        -3.2220    -1.7090     3.8490 ha         1 CEO       0.169500
     27 HC6         -0.1420     2.4940     2.3640 h2         1 CEO       0.068700
     28 HC7          0.2960     2.6040    -0.0320 h1         1 CEO       0.090700
     29 HC8          2.0850     3.0820     1.7230 h4         1 CEO      -0.016800
     30 H10          0.9400    -0.2710     0.2200 hn         1 CEO       0.346500
     31 H131         2.1500    -0.8460    -2.4080 hc         1 CEO       0.076200
     32 H132         0.7760    -1.5320    -1.5700 hc         1 CEO       0.076200
     33 H15          2.0000    -0.7350    -4.9760 ha         1 CEO       0.130000
     34 H16          0.2120    -0.9410    -6.9010 ha         1 CEO       0.122000
     35 H17         -2.2180    -1.1280    -5.9310 h4         1 CEO       0.140000
@<TRIPOS>BOND
     1     1     2 1   
     2     1    10 1   
     3     2     3 1   
     4     2    23 1   
     5     2    24 1   
     6     3     4 2   
     7     3     5 1   
     8     4    25 1   
     9     4    26 1   
    10     5     6 1   
    11     5     9 2   
    12     6     7 1   
    13     6     8 1   
    14     9    10 1   
    15    10    11 1   
    16    10    27 1   
    17    11    12 1   
    18    11    14 1   
    19    11    28 1   
    20    12    13 2   
    21    12    29 1   
    22    14    15 1   
    23    14    30 1   
    24    15    16 2   
    25    15    17 1   
    26    17    18 1   
    27    17    31 1   
    28    17    32 1   
    29    18    19 2   
    30    18    22 1   
    31    19    20 1   
    32    19    33 1   
    33    20    21 2   
    34    20    34 1   
    35    21    22 1   
    36    21    35 1   
@<TRIPOS>SUBSTRUCTURE
     1 CEO         1 TEMP              0 ****  ****    0 ROOT
