@<TRIPOS>MOLECULE
CEP
   43    44     1     0     0
SMALL
No Charge or Current Charge


@<TRIPOS>ATOM
      1 S1          -4.7460    -1.0590     1.7570 ss         1 CEP      -0.463000
      2 C2          -4.4400     0.6980     1.3550 c6         1 CEP       0.135800
      3 C3          -2.9770     1.1130     1.3910 c2         1 CEP      -0.254400
      4 C9          -2.8020     2.5790     1.8140 c3         1 CEP      -0.028200
      5 C5          -2.4330     2.7650     3.2990 c          1 CEP       0.639100
      6 O1          -3.0620     2.2530     4.2190 o          1 CEP      -0.525000
      7 O2          -1.5060     3.7630     3.4750 os         1 CEP      -0.442100
      8 C1          -1.1240     4.1000     4.8200 c3         1 CEP       0.159900
      9 C4          -1.9840     0.2200     1.0890 ce         1 CEP       0.065800
     10 C10         -0.4570     0.5240     1.1300 c          1 CEP       0.710200
     11 O4A         -0.0440     1.6180     1.4920 o          1 CEP      -0.703500
     12 O4B          0.3120    -0.3770     0.8050 o          1 CEP      -0.703500
     13 N5          -2.2660    -1.1300     0.6970 nu         1 CEP      -0.811200
     14 C6          -3.5850    -1.7510     0.5220 c6         1 CEP       0.354500
     15 C7          -3.4960    -3.3020     0.6700 c3         1 CEP      -0.019300
     16 C8          -2.8850    -3.9310    -0.5960 c          1 CEP       0.573900
     17 O9          -1.7970    -4.5000    -0.6260 o          1 CEP      -0.508100
     18 N10         -2.7710    -3.7470     1.8990 ns         1 CEP      -0.479900
     19 C11         -3.3630    -4.0580     3.1050 c          1 CEP       0.608100
     20 O12         -4.5740    -4.1760     3.2340 o          1 CEP      -0.609100
     21 C13         -2.3800    -4.2220     4.2790 c3         1 CEP      -0.075100
     22 C14         -2.2340    -2.9890     5.1490 cc         1 CEP      -0.274300
     23 C15         -2.0000    -2.9430     6.5010 cd         1 CEP      -0.119000
     24 C16         -1.9050    -1.6240     7.0160 cd         1 CEP      -0.167000
     25 C17         -2.0630    -0.6500     6.0640 cc         1 CEP      -0.237000
     26 S19         -2.3360    -1.3540     4.4730 ss         1 CEP       0.343000
     27 H21         -5.0300     1.2940     2.0660 h1         1 CEP       0.052200
     28 H22         -4.8470     0.8850     0.3510 h1         1 CEP       0.052200
     29 H3'1        -3.7320     3.1360     1.6500 hc         1 CEP       0.054700
     30 H3'2        -2.0640     3.0900     1.1870 hc         1 CEP       0.054700
     31 H1'1        -0.6950     3.2290     5.3330 h1         1 CEP       0.033033
     32 H1'2        -1.9890     4.4540     5.3960 h1         1 CEP       0.033033
     33 H1'3        -0.3700     4.8970     4.8130 h1         1 CEP       0.033033
     34 H6          -4.0020    -1.5040    -0.4670 h2         1 CEP       0.060700
     35 H7          -4.5250    -3.6800     0.7080 h1         1 CEP       0.100700
     36 H88         -3.5050    -3.8400    -1.5150 h4         1 CEP      -0.009800
     37 HN1         -1.7590    -3.7000     1.9000 hn         1 CEP       0.336500
     38 H131        -1.3870    -4.4610     3.8830 hc         1 CEP       0.062700
     39 H132        -2.7310    -5.0540     4.9020 hc         1 CEP       0.062700
     40 H15         -1.8980    -3.8310     7.1190 ha         1 CEP       0.122000
     41 H16         -1.7250    -1.4060     8.0650 ha         1 CEP       0.116000
     42 H17         -2.0420     0.4270     6.1690 h4         1 CEP       0.156000
     43 HN2         -1.4330    -1.6770     0.4640 hn         1 CEP       0.509000
@<TRIPOS>BOND
     1     1     2 1   
     2     1    14 1   
     3     2     3 1   
     4     2    27 1   
     5     2    28 1   
     6     3     4 1   
     7     3     9 2   
     8     4     5 1   
     9     4    29 1   
    10     4    30 1   
    11     5     6 2   
    12     5     7 1   
    13     7     8 1   
    14     8    31 1   
    15     8    32 1   
    16     8    33 1   
    17     9    10 1   
    18     9    13 1   
    19    10    11 1   
    20    10    12 1   
    21    13    14 1   
    22    13    43 1   
    23    14    15 1   
    24    14    34 1   
    25    15    16 1   
    26    15    18 1   
    27    15    35 1   
    28    16    17 2   
    29    16    36 1   
    30    18    19 1   
    31    18    37 1   
    32    19    20 2   
    33    19    21 1   
    34    21    22 1   
    35    21    38 1   
    36    21    39 1   
    37    22    23 2   
    38    22    26 1   
    39    23    24 1   
    40    23    40 1   
    41    24    25 2   
    42    24    41 1   
    43    25    26 1   
    44    25    42 1   
@<TRIPOS>SUBSTRUCTURE
     1 CEP         1 TEMP              0 ****  ****    0 ROOT
