@<TRIPOS>MOLECULE
CEP
   43    44     1     0     0
SMALL
abcg2


@<TRIPOS>ATOM
      1 S1          -4.4470    -1.4840     2.4030 ss         1 CEP      -0.463000
      2 C2          -4.3570     0.3180     2.4230 c6         1 CEP       0.135800
      3 C3          -3.0570     0.9060     1.9590 c2         1 CEP      -0.254400
      4 C9          -2.8810     2.3490     2.3450 c3         1 CEP      -0.028200
      5 C5          -1.7660     2.5890     3.3310 c          1 CEP       0.639100
      6 O1          -1.3490     1.7910     4.1340 o          1 CEP      -0.525000
      7 O2          -1.3550     3.8550     3.2940 os         1 CEP      -0.442100
      8 C1          -0.3350     4.2370     4.2100 c3         1 CEP       0.159900
      9 C4          -2.1620     0.2240     1.2300 ce         1 CEP       0.065800
     10 C10         -0.8660     0.8270     0.6880 c          1 CEP       0.710200
     11 O4A         -0.4750     1.9100     1.1550 o          1 CEP      -0.703500
     12 O4B         -0.3070     0.1620    -0.2110 o          1 CEP      -0.703500
     13 N5          -2.2770    -1.1110     0.8710 nu         1 CEP      -0.811200
     14 C6          -3.5230    -1.8160     0.8730 c6         1 CEP       0.354500
     15 C7          -3.2310    -3.3220     0.8790 c3         1 CEP      -0.019300
     16 C8          -2.6530    -3.8340    -0.4240 c          1 CEP       0.573900
     17 O9          -2.6550    -3.2260    -1.4620 o          1 CEP      -0.508100
     18 N10         -2.3370    -3.6520     1.9590 ns         1 CEP      -0.479900
     19 C11         -2.7250    -4.3360     3.0600 c          1 CEP       0.608100
     20 O12         -3.7210    -5.0340     3.1010 o          1 CEP      -0.609100
     21 C13         -1.8300    -4.1170     4.2700 c3         1 CEP      -0.075100
     22 C14         -2.3280    -2.9030     4.9970 cc         1 CEP      -0.274300
     23 C15         -3.3860    -2.8430     5.8550 cd         1 CEP      -0.119000
     24 C16         -3.7040    -1.5160     6.2440 cd         1 CEP      -0.167000
     25 C17         -2.8890    -0.5910     5.6630 cc         1 CEP      -0.237000
     26 S19         -1.7310    -1.3290     4.6450 ss         1 CEP       0.343000
     27 H21         -4.5260     0.5810     3.4710 h1         1 CEP       0.052200
     28 H22         -5.1930     0.7440     1.8600 h1         1 CEP       0.052200
     29 H3'1        -3.8010     2.6990     2.8310 hc         1 CEP       0.054700
     30 H3'2        -2.7430     3.0010     1.4830 hc         1 CEP       0.054700
     31 H1'1         0.5810     3.6670     4.0480 h1         1 CEP       0.033033
     32 H1'2        -0.6510     4.1140     5.2460 h1         1 CEP       0.033033
     33 H1'3        -0.1380     5.2890     4.0200 h1         1 CEP       0.033033
     34 H6          -4.1600    -1.5670     0.0170 h2         1 CEP       0.060700
     35 H7          -4.1640    -3.8830     1.0170 h1         1 CEP       0.100700
     36 H88         -2.2300    -4.8510    -0.3470 h4         1 CEP      -0.009800
     37 HN1         -1.5800    -2.9900     2.0680 hn         1 CEP       0.336500
     38 H131        -0.7860    -4.0050     3.9700 hc         1 CEP       0.062700
     39 H132        -1.8950    -4.9890     4.9200 hc         1 CEP       0.062700
     40 H15         -3.9280    -3.7190     6.1880 ha         1 CEP       0.122000
     41 H16         -4.5020    -1.2600     6.9260 ha         1 CEP       0.116000
     42 H17         -2.8990     0.4790     5.7860 h4         1 CEP       0.156000
     43 HN2         -1.6880    -1.2840     0.0630 hn         1 CEP       0.509000
@<TRIPOS>BOND
     1     1     2 1   
     2     1    14 1   
     3     2     3 1   
     4     2    27 1   
     5     2    28 1   
     6     3     4 1   
     7     3     9 2   
     8     4     5 1   
     9     4    29 1   
    10     4    30 1   
    11     5     6 2   
    12     5     7 1   
    13     7     8 1   
    14     8    31 1   
    15     8    32 1   
    16     8    33 1   
    17     9    10 1   
    18     9    13 1   
    19    10    11 1   
    20    10    12 1   
    21    13    14 1   
    22    13    43 1   
    23    14    15 1   
    24    14    34 1   
    25    15    16 1   
    26    15    18 1   
    27    15    35 1   
    28    16    17 2   
    29    16    36 1   
    30    18    19 1   
    31    18    37 1   
    32    19    20 2   
    33    19    21 1   
    34    21    22 1   
    35    21    38 1   
    36    21    39 1   
    37    22    23 2   
    38    22    26 1   
    39    23    24 1   
    40    23    40 1   
    41    24    25 2   
    42    24    41 1   
    43    25    26 1   
    44    25    42 1   
@<TRIPOS>SUBSTRUCTURE
     1 CEP         1 TEMP              0 ****  ****    0 ROOT
