@<TRIPOS>MOLECULE
CEQ
   20    19     1     0     0
SMALL
bcc


@<TRIPOS>ATOM
      1 SI1          0.0010    -0.0150    -0.4040 s6         1 CEQ      -0.665200
      2 C2          -0.0290     1.1980    -1.8500 c3         1 CEQ       0.010367
      3 C3           1.5560    -1.0800    -0.5080 c3         1 CEQ       0.010367
      4 C4          -1.5190    -1.1320    -0.4820 c3         1 CEQ       0.010367
      5 C5          -0.0000     0.9560     1.2200 c3         1 CEQ       0.033400
      6 C6           0.0210     0.0760     2.4710 c3         1 CEQ      -0.059100
      7 H21         -0.0290     0.6770    -2.8100 h1         1 CEQ       0.052589
      8 H22         -0.9190     1.8300    -1.8170 h1         1 CEQ       0.052589
      9 H23          0.8430     1.8550    -1.8310 h1         1 CEQ       0.052589
     10 H31          2.4620    -0.4730    -0.4450 h1         1 CEQ       0.052589
     11 H32          1.5950    -1.8150     0.2990 h1         1 CEQ       0.052589
     12 H33          1.5930    -1.6290    -1.4510 h1         1 CEQ       0.052589
     13 H41         -2.4430    -0.5540    -0.4170 h1         1 CEQ       0.052589
     14 H42         -1.5460    -1.6910    -1.4200 h1         1 CEQ       0.052589
     15 H43         -1.5250    -1.8580     0.3320 h1         1 CEQ       0.052589
     16 H51         -0.8810     1.6060     1.2360 h1         1 CEQ       0.054700
     17 H52          0.8640     1.6280     1.2230 h1         1 CEQ       0.054700
     18 H61          0.0190     0.6700     3.3870 hc         1 CEQ       0.026367
     19 H62         -0.8480    -0.5830     2.5140 hc         1 CEQ       0.026367
     20 H63          0.9090    -0.5580     2.5010 hc         1 CEQ       0.026367
@<TRIPOS>BOND
     1     1     2 1   
     2     1     3 1   
     3     1     4 1   
     4     1     5 1   
     5     2     7 1   
     6     2     8 1   
     7     2     9 1   
     8     3    10 1   
     9     3    11 1   
    10     3    12 1   
    11     4    13 1   
    12     4    14 1   
    13     4    15 1   
    14     5     6 1   
    15     5    16 1   
    16     5    17 1   
    17     6    18 1   
    18     6    19 1   
    19     6    20 1   
@<TRIPOS>SUBSTRUCTURE
     1 CEQ         1 TEMP              0 ****  ****    0 ROOT
