@<TRIPOS>MOLECULE
CEQ
   20    19     1     0     0
SMALL
No Charge or Current Charge


@<TRIPOS>ATOM
      1 SI1          0.0020    -0.0180    -0.3940 s6         1 CEQ      -0.222000
      2 C2          -0.0260     1.1080    -1.8140 c3         1 CEQ      -0.100433
      3 C3           1.4990    -1.0390    -0.4690 c3         1 CEQ      -0.100433
      4 C4          -1.4630    -1.0860    -0.4470 c3         1 CEQ      -0.100433
      5 C5          -0.0020     0.9550     1.1420 c3         1 CEQ      -0.077400
      6 C6           0.0220     0.0660     2.4000 c3         1 CEQ      -0.059100
      7 H21         -0.0250     0.5120    -2.7350 h1         1 CEQ       0.052589
      8 H22         -0.9350     1.7200    -1.7590 h1         1 CEQ       0.052589
      9 H23          0.8640     1.7480    -1.7740 h1         1 CEQ       0.052589
     10 H31          2.3590    -0.4250    -0.1720 h1         1 CEQ       0.052589
     11 H32          1.3830    -1.8860     0.2180 h1         1 CEQ       0.052589
     12 H33          1.6280    -1.3990    -1.4970 h1         1 CEQ       0.052589
     13 H41         -2.3370    -0.4990    -0.1380 h1         1 CEQ       0.052589
     14 H42         -1.5950    -1.4510    -1.4730 h1         1 CEQ       0.052589
     15 H43         -1.3090    -1.9290     0.2380 h1         1 CEQ       0.052589
     16 H51         -0.9050     1.5790     1.1380 h1         1 CEQ       0.054700
     17 H52          0.8800     1.6070     1.1250 h1         1 CEQ       0.054700
     18 H61          0.0180     0.6890     3.3020 hc         1 CEQ       0.026367
     19 H62         -0.8580    -0.5870     2.4350 hc         1 CEQ       0.026367
     20 H63          0.9220    -0.5590     2.4220 hc         1 CEQ       0.026367
@<TRIPOS>BOND
     1     1     2 1   
     2     1     3 1   
     3     1     4 1   
     4     1     5 1   
     5     2     7 1   
     6     2     8 1   
     7     2     9 1   
     8     3    10 1   
     9     3    11 1   
    10     3    12 1   
    11     4    13 1   
    12     4    14 1   
    13     4    15 1   
    14     5     6 1   
    15     5    16 1   
    16     5    17 1   
    17     6    18 1   
    18     6    19 1   
    19     6    20 1   
@<TRIPOS>SUBSTRUCTURE
     1 CEQ         1 TEMP              0 ****  ****    0 ROOT
