@<TRIPOS>MOLECULE
CER
   35    34     1     0     0
SMALL
No Charge or Current Charge


@<TRIPOS>ATOM
      1 C1           2.1030     0.3770    -2.7760 c          1 CER       0.616100
      2 N1           2.4230     1.2660    -3.7390 nt         1 CER      -0.607000
      3 O1          -2.6850    -0.3060    -2.4240 o          1 CER      -0.519100
      4 C2           0.7280     0.5400    -2.1300 c3         1 CER      -0.196400
      5 O2           2.9000    -0.4790    -2.4340 o          1 CER      -0.600100
      6 C3          -0.2670    -0.5400    -2.6280 c3         1 CER       0.082300
      7 O3          -0.4710    -0.3600    -4.0500 oh         1 CER      -0.632000
      8 C4          -1.6240    -0.5330    -1.8510 c          1 CER       0.537100
      9 C5          -1.5880    -0.8730    -0.3530 c3         1 CER      -0.177400
     10 C6          -1.8080     0.3780     0.5260 c3         1 CER      -0.029200
     11 C7          -1.7120     0.0500     2.0010 c2         1 CER      -0.229200
     12 C8          -0.7520     0.4900     2.8300 c2         1 CER      -0.206200
     13 C9          -0.6560     0.1690     4.3060 c3         1 CER      -0.008000
     14 C10          0.7200    -0.3590     4.6500 c2         1 CER      -0.222200
     15 C11          1.5050     0.1030     5.6370 c2         1 CER      -0.215200
     16 C12          2.8790    -0.4310     5.9810 c3         1 CER      -0.056900
     17 HN11         3.3210     1.2020    -4.1920 hn         1 CER       0.314000
     18 HN12         1.7500     1.9620    -4.0240 hn         1 CER       0.314000
     19 H21          0.3130     1.5280    -2.3630 hc         1 CER       0.063700
     20 H22          0.8550     0.4350    -1.0470 hc         1 CER       0.063700
     21 H31          0.1770    -1.5280    -2.4340 h1         1 CER       0.108700
     22 HO3         -1.4440    -0.2780    -4.1880 ho         1 CER       0.455000
     23 H51         -0.6150    -1.3070    -0.0960 hc         1 CER       0.069200
     24 H52         -2.3850    -1.5940    -0.1360 hc         1 CER       0.069200
     25 H61         -2.7930     0.8100     0.3060 hc         1 CER       0.057200
     26 H62         -1.0700     1.1460     0.2600 hc         1 CER       0.057200
     27 H71         -2.5120    -0.5940     2.3730 ha         1 CER       0.168000
     28 H81          0.0460     1.1370     2.4610 ha         1 CER       0.169000
     29 H91         -1.4150    -0.5730     4.5840 hc         1 CER       0.050700
     30 H92         -0.8780     1.0680     4.8930 hc         1 CER       0.050700
     31 H101         1.0530    -1.1860     4.0190 ha         1 CER       0.168000
     32 H111         1.1720     0.9280     6.2700 ha         1 CER       0.165000
     33 H121         3.6380     0.3550     5.8880 hc         1 CER       0.039700
     34 H122         2.9070    -0.8030     7.0120 hc         1 CER       0.039700
     35 H123         3.1710    -1.2560     5.3200 hc         1 CER       0.039700
@<TRIPOS>BOND
     1     1     2 1   
     2     1     4 1   
     3     1     5 2   
     4     2    17 1   
     5     2    18 1   
     6     3     8 2   
     7     4     6 1   
     8     4    19 1   
     9     4    20 1   
    10     6     7 1   
    11     6     8 1   
    12     6    21 1   
    13     7    22 1   
    14     8     9 1   
    15     9    10 1   
    16     9    23 1   
    17     9    24 1   
    18    10    11 1   
    19    10    25 1   
    20    10    26 1   
    21    11    12 2   
    22    11    27 1   
    23    12    13 1   
    24    12    28 1   
    25    13    14 1   
    26    13    29 1   
    27    13    30 1   
    28    14    15 2   
    29    14    31 1   
    30    15    16 1   
    31    15    32 1   
    32    16    33 1   
    33    16    34 1   
    34    16    35 1   
@<TRIPOS>SUBSTRUCTURE
     1 CER         1 TEMP              0 ****  ****    0 ROOT
