@<TRIPOS>MOLECULE
CER
   35    34     1     0     0
SMALL
bcc


@<TRIPOS>ATOM
      1 C1           1.9490    -0.1260    -3.5270 c          1 CER       0.683100
      2 N1           2.6110     0.8310    -4.1900 nt         1 CER      -0.674000
      3 O1          -2.2530     0.8600    -1.9260 o          1 CER      -0.519100
      4 C2           0.9180     0.3740    -2.5340 c3         1 CER      -0.196400
      5 O2           2.1630    -1.3200    -3.6810 o          1 CER      -0.600100
      6 C3          -0.3950    -0.4020    -2.6840 c3         1 CER       0.059100
      7 O3          -0.9230    -0.2780    -3.9720 oh         1 CER      -0.569800
      8 C4          -1.3740     0.0860    -1.6240 c          1 CER       0.537100
      9 C5          -1.1800    -0.4400    -0.2320 c3         1 CER      -0.177400
     10 C6          -1.9560     0.3090     0.8470 c3         1 CER      -0.029200
     11 C7          -1.7140    -0.2910     2.1960 c2         1 CER      -0.179200
     12 C8          -1.0930     0.3210     3.1990 c2         1 CER      -0.156200
     13 C9          -0.8150    -0.2980     4.5370 c3         1 CER      -0.008000
     14 C10          0.6600    -0.4510     4.7740 c2         1 CER      -0.172200
     15 C11          1.3420     0.1550     5.7420 c2         1 CER      -0.165200
     16 C12          2.8110     0.0160     5.9740 c3         1 CER      -0.056900
     17 HN11         3.3440     0.5920    -4.8380 hn         1 CER       0.314000
     18 HN12         2.4140     1.8060    -4.0530 hn         1 CER       0.314000
     19 H21          0.7360     1.4460    -2.6510 hc         1 CER       0.063700
     20 H22          1.3330     0.2300    -1.5330 hc         1 CER       0.063700
     21 H31         -0.1920    -1.4630    -2.5100 h1         1 CER       0.108700
     22 HO3         -1.3770     0.5720    -4.0330 ho         1 CER       0.416000
     23 H51         -0.1120    -0.4560     0.0050 hc         1 CER       0.069200
     24 H52         -1.4740    -1.4970    -0.2560 hc         1 CER       0.069200
     25 H61         -3.0240     0.2740     0.6150 hc         1 CER       0.057200
     26 H62         -1.6640     1.3620     0.8490 hc         1 CER       0.057200
     27 H71         -2.0670    -1.3110     2.3400 ha         1 CER       0.118000
     28 H81         -0.7300     1.3370     3.0570 ha         1 CER       0.119000
     29 H91         -1.3020    -1.2760     4.5910 hc         1 CER       0.050700
     30 H92         -1.2480     0.3180     5.3310 hc         1 CER       0.050700
     31 H101         1.1870    -1.1000     4.0770 ha         1 CER       0.118000
     32 H111         0.8070     0.8050     6.4300 ha         1 CER       0.115000
     33 H121         3.3140     0.9830     5.9020 hc         1 CER       0.039700
     34 H122         3.0180    -0.3660     6.9760 hc         1 CER       0.039700
     35 H123         3.2730    -0.6590     5.2540 hc         1 CER       0.039700
@<TRIPOS>BOND
     1     1     2 1   
     2     1     4 1   
     3     1     5 2   
     4     2    17 1   
     5     2    18 1   
     6     3     8 2   
     7     4     6 1   
     8     4    19 1   
     9     4    20 1   
    10     6     7 1   
    11     6     8 1   
    12     6    21 1   
    13     7    22 1   
    14     8     9 1   
    15     9    10 1   
    16     9    23 1   
    17     9    24 1   
    18    10    11 1   
    19    10    25 1   
    20    10    26 1   
    21    11    12 2   
    22    11    27 1   
    23    12    13 1   
    24    12    28 1   
    25    13    14 1   
    26    13    29 1   
    27    13    30 1   
    28    14    15 2   
    29    14    31 1   
    30    15    16 1   
    31    15    32 1   
    32    16    33 1   
    33    16    34 1   
    34    16    35 1   
@<TRIPOS>SUBSTRUCTURE
     1 CER         1 TEMP              0 ****  ****    0 ROOT
