@<TRIPOS>MOLECULE
CES
   41    42     1     0     0
SMALL
No Charge or Current Charge


@<TRIPOS>ATOM
      1 C14        118.3860    62.8680    71.1830 cc         1 CES       0.104700
      2 O15        119.0800    64.0600    71.2890 os         1 CES      -0.229000
      3 C16        118.1860    65.0780    71.0440 cc         1 CES       0.086900
      4 C17        116.9620    64.5450    70.7550 cd         1 CES      -0.194000
      5 C19        117.0900    63.1430    70.8280 cd         1 CES      -0.115000
      6 N16        120.3280    61.4760    70.9880 n2         1 CES      -0.336700
      7 C13        119.0740    61.5810    71.3390 ce         1 CES       0.316300
      8 O4A        113.4420    63.6730    73.9090 o          1 CES      -0.713000
      9 O4B        113.3350    65.0050    75.5770 o          1 CES      -0.713000
     10 C8         115.6310    59.3990    73.4910 c          1 CES       0.724000
     11 C3         115.4890    63.4690    76.9320 c2         1 CES      -0.216400
     12 C2         116.6120    62.6190    77.5170 c6         1 CES       0.159800
     13 S1         117.6470    61.7110    76.3040 ss         1 CES      -0.569000
     14 C6         116.2490    61.0100    75.3510 c6         1 CES       0.395500
     15 N5         115.4470    62.1370    74.8770 nu         1 CES      -0.796200
     16 C4         114.9800    63.2250    75.6830 ce         1 CES       0.042800
     17 C7         116.7880    60.1790    74.1600 c3         1 CES      -0.061300
     18 N10        117.5390    61.0120    73.1770 ns         1 CES      -0.442900
     19 C11        118.4110    60.5250    72.2160 c          1 CES       0.517800
     20 O12        118.6600    59.3210    72.1540 o          1 CES      -0.658100
     21 H16        118.5450    66.0960    71.0980 h4         1 CES       0.022100
     22 H17        116.0650    65.1030    70.5060 ha         1 CES       0.123000
     23 H19        116.3090    62.4110    70.6370 ha         1 CES       0.207000
     24 H183       123.2240    60.7350    72.3760 h1         1 CES       0.022033
     25 H182       122.6360    60.2660    70.7660 h1         1 CES       0.022033
     26 H181       122.8870    61.9870    71.1610 h1         1 CES       0.022033
     27 H3'3       115.2360    65.5610    77.4660 hc         1 CES       0.017700
     28 H3'2       113.9640    64.4910    78.0980 hc         1 CES       0.017700
     29 H3'1       115.5520    64.5170    78.8530 hc         1 CES       0.017700
     30 H21        117.2940    63.2450    78.1090 h1         1 CES       0.037700
     31 H22        116.1770    61.8730    78.1980 h1         1 CES       0.037700
     32 H6         115.6720    60.3560    76.0270 h2         1 CES       0.083700
     33 HN5        114.9210    61.9970    74.0090 hn         1 CES       0.483000
     34 H7         117.4790    59.4340    74.5710 h1         1 CES       0.065700
     35 H10        117.4220    62.0190    73.2390 hn         1 CES       0.386500
     36 O17        121.1970    61.1080    72.0370 os         1 CES      -0.275000
     37 O9         115.4770    58.2250    73.7970 o          1 CES      -0.730500
     38 O9A        114.9420    59.9690    72.6540 o          1 CES      -0.730500
     39 C5         115.0370    64.5670    77.8850 c3         1 CES       0.000100
     40 C18        122.5500    61.0210    71.5590 c3         1 CES       0.163900
     41 C9         113.8300    64.0370    75.0160 c          1 CES       0.703200
@<TRIPOS>BOND
     1     1     2 1   
     2     1     5 2   
     3     1     7 1   
     4     2     3 1   
     5     3     4 2   
     6     3    21 1   
     7     4     5 1   
     8     4    22 1   
     9     5    23 1   
    10     6     7 2   
    11     6    36 1   
    12     7    19 1   
    13     8    41 1   
    14     9    41 1   
    15    10    17 1   
    16    10    37 1   
    17    10    38 1   
    18    11    12 1   
    19    11    16 2   
    20    11    39 1   
    21    12    13 1   
    22    12    30 1   
    23    12    31 1   
    24    13    14 1   
    25    14    15 1   
    26    14    17 1   
    27    14    32 1   
    28    15    16 1   
    29    15    33 1   
    30    16    41 1   
    31    17    18 1   
    32    17    34 1   
    33    18    19 1   
    34    18    35 1   
    35    19    20 2   
    36    24    40 1   
    37    25    40 1   
    38    26    40 1   
    39    27    39 1   
    40    28    39 1   
    41    29    39 1   
    42    36    40 1   
@<TRIPOS>SUBSTRUCTURE
     1 CES         1 TEMP              0 ****  ****    0 ROOT
