@<TRIPOS>MOLECULE
CES
   41    42     1     0     0
SMALL
bcc


@<TRIPOS>ATOM
      1 C14        118.0230    62.8020    70.9420 cc         1 CES       0.214400
      2 O15        118.6360    63.8240    70.3040 os         1 CES      -0.317800
      3 C16        117.9650    64.0420    69.1580 cc         1 CES       0.196600
      4 C17        116.9280    63.1780    69.0420 cd         1 CES      -0.277300
      5 C19        116.9610    62.3640    70.2100 cd         1 CES      -0.198300
      6 N16        119.4920    63.0100    72.7620 n2         1 CES      -0.435200
      7 C13        118.5390    62.3630    72.2190 ce         1 CES       0.316300
      8 O4A        115.4540    63.7350    73.5460 o          1 CES      -0.818300
      9 O4B        115.7820    65.2220    75.1710 o          1 CES      -0.818300
     10 C8         114.6040    60.0990    72.9080 c          1 CES       0.934600
     11 C3         116.8150    62.8450    76.6530 c2         1 CES      -0.216400
     12 C2         116.8630    61.5710    77.4340 c6         1 CES       0.111900
     13 S1         117.0480    60.1610    76.2870 ss         1 CES      -0.473200
     14 C6         115.5610    60.4700    75.2770 c6         1 CES       0.347600
     15 N5         115.0210    61.8030    75.5390 nu         1 CES      -0.741000
     16 C4         115.8690    62.9070    75.7020 ce         1 CES       0.042800
     17 C7         115.8820    60.2240    73.7950 c3         1 CES      -0.061300
     18 N10        116.7230    61.2700    73.2790 ns         1 CES      -0.509900
     19 C11        117.9360    61.0930    72.7810 c          1 CES       0.584800
     20 O12        118.5530    60.0380    72.6970 o          1 CES      -0.658100
     21 H16        118.3340    64.8330    68.5250 h4         1 CES       0.022100
     22 H17        116.2240    63.1260    68.2280 ha         1 CES       0.141000
     23 H19        116.2780    61.5740    70.4870 ha         1 CES       0.225000
     24 H183       121.1590    62.7790    75.4650 h1         1 CES       0.022033
     25 H182       121.7600    63.3610    73.8990 h1         1 CES       0.022033
     26 H181       120.5100    64.2780    74.7740 h1         1 CES       0.022033
     27 H3'3       117.9300    64.6390    76.1750 hc         1 CES       0.017700
     28 H3'2       117.8680    64.2500    77.8930 hc         1 CES       0.017700
     29 H3'1       118.8850    63.3070    76.8240 hc         1 CES       0.017700
     30 H21        117.7190    61.5310    78.1080 h1         1 CES       0.037700
     31 H22        115.9600    61.4210    78.0300 h1         1 CES       0.037700
     32 H6         114.8000    59.7490    75.5750 h2         1 CES       0.083700
     33 HN5        114.2690    61.9740    74.8860 hn         1 CES       0.427800
     34 H7         116.4160    59.2730    73.7040 h1         1 CES       0.065700
     35 H10        116.3060    62.2150    73.2690 hn         1 CES       0.386500
     36 O17        119.8760    62.4750    73.9490 os         1 CES      -0.153300
     37 O9         114.8040    60.0630    71.6810 o          1 CES      -0.835800
     38 O9A        113.5070    60.0230    73.4920 o          1 CES      -0.835800
     39 C5         117.9220    63.8200    76.8880 c3         1 CES       0.000100
     40 C18        120.8790    63.2770    74.5390 c3         1 CES       0.140700
     41 C9         115.6910    64.0650    74.7380 c          1 CES       0.913800
@<TRIPOS>BOND
     1     1     2 1   
     2     1     5 2   
     3     1     7 1   
     4     2     3 1   
     5     3     4 2   
     6     3    21 1   
     7     4     5 1   
     8     4    22 1   
     9     5    23 1   
    10     6     7 2   
    11     6    36 1   
    12     7    19 1   
    13     8    41 1   
    14     9    41 1   
    15    10    17 1   
    16    10    37 1   
    17    10    38 1   
    18    11    12 1   
    19    11    16 2   
    20    11    39 1   
    21    12    13 1   
    22    12    30 1   
    23    12    31 1   
    24    13    14 1   
    25    14    15 1   
    26    14    17 1   
    27    14    32 1   
    28    15    16 1   
    29    15    33 1   
    30    16    41 1   
    31    17    18 1   
    32    17    34 1   
    33    18    19 1   
    34    18    35 1   
    35    19    20 2   
    36    24    40 1   
    37    25    40 1   
    38    26    40 1   
    39    27    39 1   
    40    28    39 1   
    41    29    39 1   
    42    36    40 1   
@<TRIPOS>SUBSTRUCTURE
     1 CES         1 TEMP              0 ****  ****    0 ROOT
