@<TRIPOS>MOLECULE
CET
   32    32     1     0     0
SMALL
No Charge or Current Charge


@<TRIPOS>ATOM
      1 N1           0.9010    -0.0630     2.2680 nb         1 CET      -0.302000
      2 C2           1.5950    -0.0060     1.1170 ca         1 CET       0.307000
      3 Cl2          3.3470    -0.0290     1.2290 cl         1 CET      -0.131000
      4 N3           1.0570     0.0670    -0.1150 nb         1 CET      -0.302000
      5 C4          -0.2860     0.0810    -0.1360 ca         1 CET       0.448900
      6 N5          -1.0820     0.0300     0.9390 nb         1 CET      -0.361000
      7 C6          -0.4330    -0.0410     2.1070 ca         1 CET       0.441900
      8 N7          -0.9560     0.1550    -1.3460 nu         1 CET      -0.926100
      9 C8          -0.4270     0.2010    -2.7350 c3         1 CET       0.347300
     10 C9           0.5240    -0.9190    -3.0100 c1         1 CET       0.300900
     11 N9           1.2570    -1.7950    -3.2520 n1         1 CET      -0.446000
     12 C10         -1.6740     0.0750    -3.6680 c3         1 CET      -0.088400
     13 C11         -1.4130     0.1500    -5.1960 c3         1 CET      -0.088100
     14 C12          0.2750     1.5690    -2.9390 c3         1 CET      -0.100100
     15 N13         -1.2320    -0.0950     3.2310 nu         1 CET      -0.910100
     16 C14         -0.7960    -0.1770     4.6340 c3         1 CET       0.238800
     17 C15         -2.0170    -0.2170     5.5670 c3         1 CET      -0.115100
     18 HN7         -1.9700     0.1540    -1.2470 hn         1 CET       0.513000
     19 H101        -2.1820    -0.8760    -3.4590 hc         1 CET       0.051700
     20 H102        -2.3920     0.8650    -3.4140 hc         1 CET       0.051700
     21 H111        -2.3540     0.0110    -5.7430 hc         1 CET       0.043700
     22 H112        -1.0050     1.1250    -5.4850 hc         1 CET       0.043700
     23 H113        -0.7180    -0.6320    -5.5250 hc         1 CET       0.043700
     24 H121        -0.4280     2.3950    -2.7750 hc         1 CET       0.058033
     25 H122         1.1130     1.7000    -2.2460 hc         1 CET       0.058033
     26 H123         0.6780     1.6630    -3.9540 hc         1 CET       0.058033
     27 HN3         -2.2350    -0.0750     3.0450 hn         1 CET       0.509000
     28 H141        -0.1740     0.6920     4.8900 h1         1 CET       0.059200
     29 H142        -0.1920    -1.0820     4.7920 h1         1 CET       0.059200
     30 H151        -1.6900    -0.2780     6.6110 hc         1 CET       0.045700
     31 H152        -2.6250     0.6880     5.4520 hc         1 CET       0.045700
     32 H153        -2.6430    -1.0910     5.3530 hc         1 CET       0.045700
@<TRIPOS>BOND
     1     1     2 ar  
     2     1     7 ar  
     3     2     3 1   
     4     2     4 ar  
     5     4     5 ar  
     6     5     6 ar  
     7     5     8 1   
     8     6     7 ar  
     9     7    15 1   
    10     8     9 1   
    11     8    18 1   
    12     9    10 1   
    13     9    12 1   
    14     9    14 1   
    15    10    11 3   
    16    12    13 1   
    17    12    19 1   
    18    12    20 1   
    19    13    21 1   
    20    13    22 1   
    21    13    23 1   
    22    14    24 1   
    23    14    25 1   
    24    14    26 1   
    25    15    16 1   
    26    15    27 1   
    27    16    17 1   
    28    16    28 1   
    29    16    29 1   
    30    17    30 1   
    31    17    31 1   
    32    17    32 1   
@<TRIPOS>SUBSTRUCTURE
     1 CET         1 TEMP              0 ****  ****    0 ROOT
