@<TRIPOS>MOLECULE
CET
   32    32     1     0     0
SMALL
bcc


@<TRIPOS>ATOM
      1 N1           0.7530    -0.0640     2.1720 nb         1 CET      -0.828000
      2 C2           1.3570     0.0020     1.0170 ca         1 CET       0.833000
      3 CL2          3.0870    -0.0170     1.0740 cl         1 CET      -0.131000
      4 N3           0.8340     0.0800    -0.1790 nb         1 CET      -0.828000
      5 C4          -0.5090     0.0900    -0.1680 ca         1 CET       0.974900
      6 N5          -1.2630     0.0280     0.9200 nb         1 CET      -0.887000
      7 C6          -0.5940    -0.0470     2.0720 ca         1 CET       0.967900
      8 N7          -1.1400     0.1570    -1.3500 nu         1 CET      -0.870900
      9 C8          -0.5100     0.2530    -2.6530 c3         1 CET       0.347300
     10 C9           0.4320    -0.8720    -2.8310 c1         1 CET       0.211700
     11 N9           1.1430    -1.7510    -3.0390 n1         1 CET      -0.356800
     12 C10         -1.6340     0.0900    -3.6980 c3         1 CET      -0.088400
     13 C11         -1.1780     0.1270    -5.1470 c3         1 CET      -0.088100
     14 C12          0.2360     1.5760    -2.8420 c3         1 CET      -0.100100
     15 N13         -1.2960    -0.1070     3.1980 nu         1 CET      -0.854900
     16 C14         -0.7190    -0.2180     4.5250 c3         1 CET       0.238800
     17 C15         -1.8140    -0.1820     5.5720 c3         1 CET      -0.115100
     18 HN7         -2.1470     0.1240    -1.3220 hn         1 CET       0.457800
     19 H101        -2.1550    -0.8500    -3.4990 hc         1 CET       0.051700
     20 H102        -2.3500     0.8960    -3.5170 hc         1 CET       0.051700
     21 H111        -2.0300    -0.0650    -5.7980 hc         1 CET       0.043700
     22 H112        -0.7680     1.0970    -5.4250 hc         1 CET       0.043700
     23 H113        -0.4270    -0.6340    -5.3620 hc         1 CET       0.043700
     24 H121        -0.4780     2.3960    -2.7690 hc         1 CET       0.058033
     25 H122         1.0050     1.7060    -2.0850 hc         1 CET       0.058033
     26 H123         0.7140     1.6190    -3.8200 hc         1 CET       0.058033
     27 HN3         -2.2990    -0.1210     3.1020 hn         1 CET       0.453800
     28 H141        -0.0140     0.6000     4.6870 h1         1 CET       0.059200
     29 H142        -0.1500    -1.1470     4.6070 h1         1 CET       0.059200
     30 H151        -1.3760    -0.2610     6.5660 hc         1 CET       0.045700
     31 H152        -2.3760     0.7510     5.5290 hc         1 CET       0.045700
     32 H153        -2.5110    -1.0110     5.4490 hc         1 CET       0.045700
@<TRIPOS>BOND
     1     1     2 ar  
     2     1     7 ar  
     3     2     3 1   
     4     2     4 ar  
     5     4     5 ar  
     6     5     6 ar  
     7     5     8 1   
     8     6     7 ar  
     9     7    15 1   
    10     8     9 1   
    11     8    18 1   
    12     9    10 1   
    13     9    12 1   
    14     9    14 1   
    15    10    11 3   
    16    12    13 1   
    17    12    19 1   
    18    12    20 1   
    19    13    21 1   
    20    13    22 1   
    21    13    23 1   
    22    14    24 1   
    23    14    25 1   
    24    14    26 1   
    25    15    16 1   
    26    15    27 1   
    27    16    17 1   
    28    16    28 1   
    29    16    29 1   
    30    17    30 1   
    31    17    31 1   
    32    17    32 1   
@<TRIPOS>SUBSTRUCTURE
     1 CET         1 TEMP              0 ****  ****    0 ROOT
