@<TRIPOS>MOLECULE
CEU
   34    35     1     0     0
SMALL
No Charge or Current Charge


@<TRIPOS>ATOM
      1 C01          4.3170    -9.3480    16.5040 c3         1 CEU       0.151100
      2 N02          3.7030    -8.7500    15.2940 n3         1 CEU      -0.712600
      3 C03          2.8440    -7.5630    15.5870 c6         1 CEU       0.153300
      4 C04          1.5070    -7.9270    16.3160 c6         1 CEU       0.180300
      5 N05          0.7300    -9.0190    15.6360 nh         1 CEU      -0.766300
      6 C06          1.5800   -10.1720    15.1690 c6         1 CEU       0.180300
      7 C07          2.9140    -9.7260    14.4820 c6         1 CEU       0.153300
      8 C08         -0.6530    -9.1960    15.8810 ca         1 CEU       0.436900
      9 N09         -1.3020   -10.0800    15.1010 nb         1 CEU      -0.352000
     10 C10         -2.6050   -10.2330    15.3400 ca         1 CEU       0.431900
     11 N11         -3.2490   -11.1220    14.5570 nv         1 CEU      -1.051900
     12 N12         -3.3490    -9.6210    16.2620 nb         1 CEU      -0.353000
     13 C13         -2.6980    -8.7480    17.0330 ca         1 CEU       0.437900
     14 N14         -3.4700    -8.1190    17.9890 nu         1 CEU      -0.942100
     15 C15         -3.0370    -7.1120    18.9720 c3         1 CEU       0.226100
     16 C16         -1.3350    -8.4930    16.8850 ca         1 CEU      -0.409000
     17 H1           4.9240    -8.6040    17.0360 h1         1 CEU       0.031033
     18 H2           3.5560    -9.7270    17.1990 h1         1 CEU       0.031033
     19 H3           4.9740   -10.1840    16.2290 h1         1 CEU       0.031033
     20 H5           3.3930    -6.8280    16.1950 h1         1 CEU       0.060450
     21 H6           2.5870    -7.0550    14.6460 h1         1 CEU       0.060450
     22 H7           1.7330    -8.2230    17.3510 h1         1 CEU       0.050950
     23 H8           0.9060    -7.0070    16.3660 h1         1 CEU       0.050950
     24 H9           1.0380   -10.7970    14.4460 h1         1 CEU       0.050950
     25 H10          1.8220   -10.8180    16.0260 h1         1 CEU       0.050950
     26 H11          2.6580    -9.2740    13.5120 h1         1 CEU       0.060450
     27 H12          3.5160   -10.6190    14.2580 h1         1 CEU       0.060450
     28 H13         -2.6870   -11.7690    14.0090 hn         1 CEU       0.480500
     29 H14         -4.1680   -11.4420    14.8480 hn         1 CEU       0.480500
     30 H15         -4.4540    -8.3930    17.9930 hn         1 CEU       0.504000
     31 H16         -3.8840    -6.7990    19.5980 h1         1 CEU       0.035367
     32 H17         -2.2560    -7.5230    19.6260 h1         1 CEU       0.035367
     33 H18         -2.6350    -6.2250    18.4630 h1         1 CEU       0.035367
     34 H19         -0.8310    -7.7880    17.5330 ha         1 CEU       0.126000
@<TRIPOS>BOND
     1     1     2 1   
     2     1    17 1   
     3     1    18 1   
     4     1    19 1   
     5     2     3 1   
     6     2     7 1   
     7     3     4 1   
     8     3    20 1   
     9     3    21 1   
    10     4     5 1   
    11     4    22 1   
    12     4    23 1   
    13     5     6 1   
    14     5     8 1   
    15     6     7 1   
    16     6    24 1   
    17     6    25 1   
    18     7    26 1   
    19     7    27 1   
    20     8     9 ar  
    21     8    16 ar  
    22     9    10 ar  
    23    10    11 1   
    24    10    12 ar  
    25    11    28 1   
    26    11    29 1   
    27    12    13 ar  
    28    13    14 1   
    29    13    16 ar  
    30    14    15 1   
    31    14    30 1   
    32    15    31 1   
    33    15    32 1   
    34    15    33 1   
    35    16    34 1   
@<TRIPOS>SUBSTRUCTURE
     1 CEU         1 TEMP              0 ****  ****    0 ROOT
