@<TRIPOS>MOLECULE
CEU
   34    35     1     0     0
SMALL
abcg2


@<TRIPOS>ATOM
      1 C01          4.3120    -9.4640    16.3020 c3         1 CEU       0.151100
      2 N02          3.5870    -8.6940    15.3120 n3         1 CEU      -0.712600
      3 C03          2.7710    -7.6380    15.8720 c6         1 CEU       0.153300
      4 C04          1.5120    -8.1220    16.5850 c6         1 CEU       0.180300
      5 N05          0.7370    -9.0050    15.7310 nh         1 CEU      -0.766300
      6 C06          1.5070   -10.0600    15.0830 c6         1 CEU       0.180300
      7 C07          2.7640    -9.4990    14.4300 c6         1 CEU       0.153300
      8 C08         -0.5930    -9.2010    15.9700 ca         1 CEU       0.436900
      9 N09         -1.1850   -10.1830    15.2800 nb         1 CEU      -0.352000
     10 C10         -2.4880   -10.3630    15.4780 ca         1 CEU       0.431900
     11 N11         -3.0830   -11.3300    14.7320 nv         1 CEU      -1.051900
     12 N12         -3.2750    -9.6780    16.2990 nb         1 CEU      -0.353000
     13 C13         -2.6810    -8.7000    16.9970 ca         1 CEU       0.437900
     14 N14         -3.4800    -8.0080    17.8300 nu         1 CEU      -0.942100
     15 C15         -3.0410    -6.9360    18.6810 c3         1 CEU       0.226100
     16 C16         -1.3170    -8.4160    16.8760 ca         1 CEU      -0.409000
     17 H1           4.9310    -8.7930    16.9000 h1         1 CEU       0.031033
     18 H2           3.6920   -10.0440    16.9980 h1         1 CEU       0.031033
     19 H3           4.9790   -10.1670    15.7980 h1         1 CEU       0.031033
     20 H5           3.3650    -7.0460    16.5720 h1         1 CEU       0.060450
     21 H6           2.4730    -6.9690    15.0580 h1         1 CEU       0.060450
     22 H7           1.7660    -8.6210    17.5300 h1         1 CEU       0.050950
     23 H8           0.9300    -7.2380    16.8370 h1         1 CEU       0.050950
     24 H9           0.8930   -10.5330    14.3220 h1         1 CEU       0.050950
     25 H10          1.7660   -10.8400    15.8110 h1         1 CEU       0.050950
     26 H11          2.4710    -8.8790    13.5760 h1         1 CEU       0.060450
     27 H12          3.3550   -10.3290    14.0350 h1         1 CEU       0.060450
     28 H13         -2.4860   -12.0250    14.3170 hn         1 CEU       0.480500
     29 H14         -3.9850   -11.6560    15.0350 hn         1 CEU       0.480500
     30 H15         -4.4390    -8.3040    17.8810 hn         1 CEU       0.504000
     31 H16         -3.9000    -6.5500    19.2210 h1         1 CEU       0.035367
     32 H17         -2.3000    -7.2630    19.4160 h1         1 CEU       0.035367
     33 H18         -2.6070    -6.1120    18.1090 h1         1 CEU       0.035367
     34 H19         -0.8640    -7.6380    17.4670 ha         1 CEU       0.126000
@<TRIPOS>BOND
     1     1     2 1   
     2     1    17 1   
     3     1    18 1   
     4     1    19 1   
     5     2     3 1   
     6     2     7 1   
     7     3     4 1   
     8     3    20 1   
     9     3    21 1   
    10     4     5 1   
    11     4    22 1   
    12     4    23 1   
    13     5     6 1   
    14     5     8 1   
    15     6     7 1   
    16     6    24 1   
    17     6    25 1   
    18     7    26 1   
    19     7    27 1   
    20     8     9 ar  
    21     8    16 ar  
    22     9    10 ar  
    23    10    11 1   
    24    10    12 ar  
    25    11    28 1   
    26    11    29 1   
    27    12    13 ar  
    28    13    14 1   
    29    13    16 ar  
    30    14    15 1   
    31    14    30 1   
    32    15    31 1   
    33    15    32 1   
    34    15    33 1   
    35    16    34 1   
@<TRIPOS>SUBSTRUCTURE
     1 CEU         1 TEMP              0 ****  ****    0 ROOT
