@<TRIPOS>MOLECULE
CEV
   36    36     1     0     0
SMALL
No Charge or Current Charge


@<TRIPOS>ATOM
      1 O1           4.0610    -0.1620    -0.0850 os         1 CEV      -0.454100
      2 C3           5.3550     0.4570    -0.0080 c3         1 CEV       0.168600
      3 C5           5.9560     0.4460    -1.4220 c3         1 CEV      -0.098100
      4 N49         -1.0160    -1.3510     1.2510 n8         1 CEV      -0.998200
      5 C57         -0.5170    -0.4770     0.1740 c3         1 CEV       0.162500
      6 C59         -1.5520     0.6330    -0.1610 c3         1 CEV      -0.050400
      7 C61         -2.8180     0.1960    -0.9660 c5         1 CEV      -0.148700
      8 C63          0.8550     0.1160     0.5830 c3         1 CEV      -0.109400
      9 C65         -3.7140    -0.7960    -0.2090 c          1 CEV       0.586000
     10 O66         -3.7610    -2.0150    -0.2770 o          1 CEV      -0.555000
     11 N69         -4.7220    -0.0470     0.3410 ns         1 CEV      -0.517900
     12 C71         -4.6510     1.3840     0.0490 c5         1 CEV       0.104000
     13 C73         -3.7940     1.3730    -1.2470 c5         1 CEV      -0.094400
     14 C82          1.9720    -0.9360     0.8230 c3         1 CEV      -0.140400
     15 C84          3.3260    -0.2640     1.0680 c          1 CEV       0.594100
     16 O88          3.6960     0.1390     2.1630 o          1 CEV      -0.491000
     17 H3           5.2740     1.4940     0.3470 h1         1 CEV       0.048200
     18 H3A          6.0150    -0.0950     0.6750 h1         1 CEV       0.048200
     19 H5           6.0600    -0.5820    -1.7890 hc         1 CEV       0.047367
     20 H5A          5.3190     1.0050    -2.1170 hc         1 CEV       0.047367
     21 H5B          6.9490     0.9110    -1.4160 hc         1 CEV       0.047367
     22 HN4A        -1.0160    -0.8260     2.1330 hn         1 CEV       0.396000
     23 H57         -0.3700    -1.0860    -0.7310 h1         1 CEV       0.073700
     24 H59         -1.8490     1.1310     0.7710 hc         1 CEV       0.043200
     25 H59A        -1.0380     1.4020    -0.7500 hc         1 CEV       0.043200
     26 H61         -2.4570    -0.2840    -1.8820 hc         1 CEV       0.076700
     27 H63          1.1910     0.7930    -0.2140 hc         1 CEV       0.058200
     28 H63A         0.7380     0.7350     1.4820 hc         1 CEV       0.058200
     29 HN69        -5.4890    -0.5240     0.7990 hn         1 CEV       0.326500
     30 H71         -5.6390     1.8340    -0.1160 h1         1 CEV       0.041200
     31 H71A        -4.1530     1.9320     0.8600 h1         1 CEV       0.041200
     32 H73         -3.2910     2.3290    -1.4340 hc         1 CEV       0.055200
     33 H73A        -4.4200     1.1570    -2.1210 hc         1 CEV       0.055200
     34 H82          1.7220    -1.5500     1.6950 hc         1 CEV       0.070700
     35 H82A         2.0430    -1.5550    -0.0800 hc         1 CEV       0.070700
     36 HN49        -0.3350    -2.0990     1.4160 hn         1 CEV       0.396000
@<TRIPOS>BOND
     1     1     2 1   
     2     1    15 1   
     3     2     3 1   
     4     2    17 1   
     5     2    18 1   
     6     3    19 1   
     7     3    20 1   
     8     3    21 1   
     9     4     5 1   
    10     4    22 1   
    11     4    36 1   
    12     5     6 1   
    13     5     8 1   
    14     5    23 1   
    15     6     7 1   
    16     6    24 1   
    17     6    25 1   
    18     7     9 1   
    19     7    13 1   
    20     7    26 1   
    21     8    14 1   
    22     8    27 1   
    23     8    28 1   
    24     9    10 2   
    25     9    11 1   
    26    11    12 1   
    27    11    29 1   
    28    12    13 1   
    29    12    30 1   
    30    12    31 1   
    31    13    32 1   
    32    13    33 1   
    33    14    15 1   
    34    14    34 1   
    35    14    35 1   
    36    15    16 2   
@<TRIPOS>SUBSTRUCTURE
     1 CEV         1 TEMP              0 ****  ****    0 ROOT
