@<TRIPOS>MOLECULE
CEV
   36    36     1     0     0
SMALL
bcc


@<TRIPOS>ATOM
      1 O1           4.2350    -0.2880    -0.1140 os         1 CEV      -0.430900
      2 C3           5.5680     0.2260     0.0280 c3         1 CEV       0.145400
      3 C5           6.5290    -0.8980    -0.2740 c3         1 CEV      -0.098100
      4 N49         -0.8750    -1.0310     0.7890 n8         1 CEV      -0.887800
      5 C57         -0.6310     0.0250    -0.1830 c3         1 CEV       0.162500
      6 C59         -1.7880     1.0220    -0.1230 c3         1 CEV      -0.050400
      7 C61         -3.0630     0.6270    -0.8810 c5         1 CEV      -0.148700
      8 C63          0.7010     0.7610     0.0070 c3         1 CEV      -0.109400
      9 C65         -3.4900    -0.8190    -0.6640 c          1 CEV       0.728500
     10 O66         -3.0830    -1.8010    -1.2630 o          1 CEV      -0.630500
     11 N69         -4.4500    -0.8130     0.2780 ns         1 CEV      -0.584900
     12 C71         -4.8250     0.5020     0.7490 c5         1 CEV       0.104000
     13 C73         -4.2740     1.4060    -0.3590 c5         1 CEV      -0.094400
     14 C82          1.8970    -0.1760    -0.0210 c3         1 CEV      -0.140400
     15 C84          3.2180     0.5270     0.1360 c          1 CEV       0.643100
     16 O88          3.3570     1.6810     0.4600 o          1 CEV      -0.540000
     17 H3           5.7150     1.0610    -0.6600 h1         1 CEV       0.048200
     18 H3A          5.7150     0.5990     1.0440 h1         1 CEV       0.048200
     19 H5           6.4020    -1.7300     0.4190 hc         1 CEV       0.047367
     20 H5A          6.4090    -1.2700    -1.2910 hc         1 CEV       0.047367
     21 H5B          7.5510    -0.5310    -0.1720 hc         1 CEV       0.047367
     22 HN4A        -0.6520    -0.6950     1.7200 hn         1 CEV       0.340800
     23 H57         -0.6180    -0.4450    -1.1730 h1         1 CEV       0.073700
     24 H59         -2.0240     1.2060     0.9320 hc         1 CEV       0.043200
     25 H59A        -1.4700     1.9860    -0.5290 hc         1 CEV       0.043200
     26 H61         -2.8960     0.7850    -1.9490 hc         1 CEV       0.076700
     27 H63          0.8070     1.5110    -0.7820 hc         1 CEV       0.058200
     28 H63A         0.6760     1.3090     0.9550 hc         1 CEV       0.058200
     29 HN69        -4.8590    -1.6610     0.6370 hn         1 CEV       0.326500
     30 H71         -5.9060     0.5870     0.8570 h1         1 CEV       0.041200
     31 H71A        -4.3770     0.7260     1.7220 h1         1 CEV       0.041200
     32 H73         -4.0170     2.4010     0.0040 hc         1 CEV       0.055200
     33 H73A        -5.0240     1.5190    -1.1450 hc         1 CEV       0.055200
     34 H82          1.8270    -0.9150     0.7850 hc         1 CEV       0.070700
     35 H82A         1.9120    -0.7540    -0.9500 hc         1 CEV       0.070700
     36 HN49        -0.2690    -1.8240     0.6190 hn         1 CEV       0.340800
@<TRIPOS>BOND
     1     1     2 1   
     2     1    15 1   
     3     2     3 1   
     4     2    17 1   
     5     2    18 1   
     6     3    19 1   
     7     3    20 1   
     8     3    21 1   
     9     4     5 1   
    10     4    22 1   
    11     4    36 1   
    12     5     6 1   
    13     5     8 1   
    14     5    23 1   
    15     6     7 1   
    16     6    24 1   
    17     6    25 1   
    18     7     9 1   
    19     7    13 1   
    20     7    26 1   
    21     8    14 1   
    22     8    27 1   
    23     8    28 1   
    24     9    10 2   
    25     9    11 1   
    26    11    12 1   
    27    11    29 1   
    28    12    13 1   
    29    12    30 1   
    30    12    31 1   
    31    13    32 1   
    32    13    33 1   
    33    14    15 1   
    34    14    34 1   
    35    14    35 1   
    36    15    16 2   
@<TRIPOS>SUBSTRUCTURE
     1 CEV         1 TEMP              0 ****  ****    0 ROOT
