@<TRIPOS>MOLECULE
CEX
  108   112     1     0     0
SMALL
abcg2


@<TRIPOS>ATOM
      1 C1A          5.5230     4.7290    -0.0140 c6         1 CEX       0.357300
      2 O1A          4.4100     4.8660    -0.8320 oh         1 CEX      -0.722000
      3 C1B          5.4330    -0.4100     1.3450 c6         1 CEX       0.365300
      4 C1C          1.4930    -3.9240     0.7280 c6         1 CEX       0.364300
      5 C1D         -3.4250    -3.0970    -1.0770 c6         1 CEX       0.363300
      6 C1E         -6.1150     1.4570    -1.5780 c6         1 CEX       0.364300
      7 C2A          6.5160     3.7770    -0.6840 c6         1 CEX       0.119300
      8 O2A          6.8170     4.1470    -2.0040 oh         1 CEX      -0.707000
      9 C2B          5.6500    -1.6000     0.4100 c6         1 CEX       0.119300
     10 O2B          6.5700    -1.3390    -0.6140 oh         1 CEX      -0.728000
     11 C2C          1.0500    -4.5430    -0.5990 c6         1 CEX       0.119300
     12 O2C          2.1090    -4.7690    -1.4880 oh         1 CEX      -0.729000
     13 C2D         -3.8080    -2.6200    -2.4790 c6         1 CEX       0.122300
     14 O2D         -2.9430    -3.0790    -3.4820 oh         1 CEX      -0.731000
     15 C2E         -5.8720     2.5620    -2.6080 c6         1 CEX       0.120300
     16 O2E         -5.4370     2.0700    -3.8470 oh         1 CEX      -0.727000
     17 C3A          5.9510     2.3640    -0.7130 c6         1 CEX       0.162300
     18 O3A          6.9040     1.4420    -1.1950 oh         1 CEX      -0.738000
     19 C3B          4.3030    -2.0670    -0.1320 c6         1 CEX       0.127300
     20 O3B          4.4460    -3.2350    -0.9130 oh         1 CEX      -0.733000
     21 C3C         -0.0430    -3.6740    -1.2160 c6         1 CEX       0.125300
     22 O3C         -0.5600    -4.2550    -2.3930 oh         1 CEX      -0.734000
     23 C3D         -3.9180    -1.0980    -2.4790 c6         1 CEX       0.133300
     24 O3D         -4.3650    -0.6180    -3.7280 oh         1 CEX      -0.732000
     25 C3E         -4.9200     3.6070    -2.0320 c6         1 CEX       0.107300
     26 O3E         -4.7820     4.7130    -2.8950 oh         1 CEX      -0.668000
     27 C4A          5.5610     1.9300     0.6940 c6         1 CEX       0.161300
     28 O4A          4.9440     0.6660     0.5960 os         1 CEX      -0.495000
     29 C4B          3.3580    -2.3870     1.0190 c6         1 CEX       0.164300
     30 O4B          2.0960    -2.6890     0.4650 os         1 CEX      -0.498000
     31 C4C         -1.1930    -3.5240    -0.2300 c6         1 CEX       0.162300
     32 O4C         -2.1390    -2.6360    -0.7840 os         1 CEX      -0.494000
     33 C4D         -4.9210    -0.6560    -1.4230 c6         1 CEX       0.162300
     34 O4D         -4.9190     0.7550    -1.3880 os         1 CEX      -0.495000
     35 C4E         -5.4710     4.1280    -0.7100 c6         1 CEX       0.150300
     36 O4E         -4.5700     5.0040    -0.0790 oh         1 CEX      -0.719000
     37 C5A          4.6080     2.9600     1.3110 c6         1 CEX       0.153300
     38 O5A          5.2050     4.2460     1.2650 os         1 CEX      -0.469000
     39 C5B          3.2550    -1.1780     1.9590 c6         1 CEX       0.152300
     40 O5B          4.5530    -0.7650     2.3650 os         1 CEX      -0.453000
     41 C5C         -0.6670    -2.9730     1.1010 c6         1 CEX       0.154300
     42 O5C          0.3970    -3.7860     1.5770 os         1 CEX      -0.453000
     43 C5D         -4.5240    -1.2330    -0.0570 c6         1 CEX       0.151300
     44 O5D         -4.3600    -2.6420    -0.1490 os         1 CEX      -0.454000
     45 C5E         -5.7320     2.9560     0.2370 c6         1 CEX       0.168300
     46 O5E         -6.5850     2.0050    -0.3860 os         1 CEX      -0.458000
     47 C6A          4.3010     2.6670     2.7630 c3         1 CEX       0.163600
     48 O6A          3.3590     3.6110     3.2190 oh         1 CEX      -0.714000
     49 C6B          2.4810    -1.4890     3.2210 c3         1 CEX       0.163600
     50 O6B          2.3270    -0.2970     3.9570 oh         1 CEX      -0.721000
     51 C6C         -1.7250    -2.9640     2.1830 c3         1 CEX       0.163600
     52 O6C         -1.1890    -2.3410     3.3270 oh         1 CEX      -0.723000
     53 C6D         -5.5820    -0.9920     0.9990 c3         1 CEX       0.161600
     54 O6D         -5.0990    -1.4600     2.2370 oh         1 CEX      -0.723000
     55 C6E         -6.4170     3.4000     1.5130 c3         1 CEX       0.169600
     56 O6E         -6.5210     2.2960     2.3800 oh         1 CEX      -0.722000
     57 H1A          6.0030     5.6980     0.1710 h2         1 CEX       0.062700
     58 HO1A         3.8730     5.5960    -0.5060 ho         1 CEX       0.521000
     59 H1B          6.3740    -0.1400     1.8400 h2         1 CEX       0.084700
     60 H1C          2.1900    -4.5940     1.2460 h2         1 CEX       0.085700
     61 H1D         -3.4640    -4.1920    -1.0270 h2         1 CEX       0.086700
     62 H1E         -6.9050     0.7840    -1.9320 h2         1 CEX       0.083700
     63 H2A          7.4200     3.7700    -0.0580 h1         1 CEX       0.053700
     64 HO2A         7.4310     4.8880    -1.9880 ho         1 CEX       0.512000
     65 H2B          6.0720    -2.4110     1.0140 h1         1 CEX       0.088700
     66 HO2B         6.4860    -0.4190    -0.9180 ho         1 CEX       0.541000
     67 H2C          0.6150    -5.5230    -0.3660 h1         1 CEX       0.086700
     68 HO2C         2.7920    -4.0850    -1.3810 ho         1 CEX       0.542000
     69 HO2D        -2.0660    -3.2740    -3.1140 ho         1 CEX       0.542000
     70 HO2E        -4.8800     1.2850    -3.7190 ho         1 CEX       0.539000
     71 H3A          5.0500     2.3480    -1.3420 h1         1 CEX       0.076700
     72 HO3A         7.1020     1.6540    -2.1140 ho         1 CEX       0.530000
     73 H3B          3.8510    -1.2640    -0.7320 h1         1 CEX       0.062700
     74 HO3B         4.9850    -3.0180    -1.6820 ho         1 CEX       0.528000
     75 H3C          0.3640    -2.6760    -1.4330 h1         1 CEX       0.062700
     76 HO3C         0.1580    -4.3370    -3.0320 ho         1 CEX       0.529000
     77 H3D         -2.9390    -0.6630    -2.2330 h1         1 CEX       0.062700
     78 HO3D        -3.7000    -0.8330    -4.3910 ho         1 CEX       0.528000
     79 H3E         -3.9410     3.1430    -1.8410 h1         1 CEX       0.058700
     80 HO3E        -4.3120     4.4230    -3.6840 ho         1 CEX       0.463000
     81 H4A          6.4710     1.8730     1.3110 h1         1 CEX       0.057700
     82 H4B          3.7520    -3.2470     1.5800 h1         1 CEX       0.060700
     83 H4C         -1.6430    -4.5120    -0.0530 h1         1 CEX       0.061700
     84 H4D         -5.9190    -1.0340    -1.6950 h1         1 CEX       0.059700
     85 H4E         -6.4320     4.6290    -0.9150 h1         1 CEX       0.048700
     86 HO4E        -4.3870     5.7290    -0.6850 ho         1 CEX       0.525000
     87 H5A          3.6680     2.9480     0.7430 h1         1 CEX       0.076700
     88 H5B          2.7450    -0.3650     1.4240 h1         1 CEX       0.078700
     89 H5C         -0.3210    -1.9420     0.9410 h1         1 CEX       0.076700
     90 H5D         -3.5870    -0.7560     0.2630 h1         1 CEX       0.075700
     91 H5E         -4.7690     2.4950     0.4980 h1         1 CEX       0.076700
     92 H6A          3.9150     1.6490     2.8500 h1         1 CEX       0.042700
     93 H6AA         5.2350     2.7110     3.3420 h1         1 CEX       0.042700
     94 HO6A         3.0910     3.3570     4.1060 ho         1 CEX       0.507000
     95 H6B          1.5130    -1.9140     2.9490 h1         1 CEX       0.044700
     96 H6BA         3.0240    -2.2550     3.7930 h1         1 CEX       0.044700
     97 HO6B         1.7760    -0.4900     4.7200 ho         1 CEX       0.509000
     98 H6C         -2.6060    -2.4320     1.8160 h1         1 CEX       0.046200
     99 H6CA        -2.0360    -3.9980     2.3880 h1         1 CEX       0.046200
    100 HO6C        -1.9010    -2.2230     3.9620 ho         1 CEX       0.509000
    101 H6D         -5.8090     0.0750     1.0400 h1         1 CEX       0.046200
    102 H6DA        -6.5040    -1.5090     0.6970 h1         1 CEX       0.046200
    103 HO6D        -5.7140    -1.1780     2.9200 ho         1 CEX       0.508000
    104 H6E         -5.8250     4.2070     1.9570 h1         1 CEX       0.037200
    105 H6EA        -7.4010     3.8200     1.2640 h1         1 CEX       0.037200
    106 HO6E        -6.9410     2.5930     3.1920 ho         1 CEX       0.504000
    107 H2D         -4.8030    -3.0310    -2.6930 h1         1 CEX       0.083700
    108 H2E         -6.8390     3.0490    -2.7840 h1         1 CEX       0.085700
@<TRIPOS>BOND
     1     1     2 1   
     2     1     7 1   
     3     1    38 1   
     4     1    57 1   
     5     2    58 1   
     6     3     9 1   
     7     3    28 1   
     8     3    40 1   
     9     3    59 1   
    10     4    11 1   
    11     4    30 1   
    12     4    42 1   
    13     4    60 1   
    14     5    13 1   
    15     5    32 1   
    16     5    44 1   
    17     5    61 1   
    18     6    15 1   
    19     6    34 1   
    20     6    46 1   
    21     6    62 1   
    22     7     8 1   
    23     7    17 1   
    24     7    63 1   
    25     8    64 1   
    26     9    10 1   
    27     9    19 1   
    28     9    65 1   
    29    10    66 1   
    30    11    12 1   
    31    11    21 1   
    32    11    67 1   
    33    12    68 1   
    34    13    14 1   
    35    13    23 1   
    36    13   107 1   
    37    14    69 1   
    38    15    16 1   
    39    15    25 1   
    40    15   108 1   
    41    16    70 1   
    42    17    18 1   
    43    17    27 1   
    44    17    71 1   
    45    18    72 1   
    46    19    20 1   
    47    19    29 1   
    48    19    73 1   
    49    20    74 1   
    50    21    22 1   
    51    21    31 1   
    52    21    75 1   
    53    22    76 1   
    54    23    24 1   
    55    23    33 1   
    56    23    77 1   
    57    24    78 1   
    58    25    26 1   
    59    25    35 1   
    60    25    79 1   
    61    26    80 1   
    62    27    28 1   
    63    27    37 1   
    64    27    81 1   
    65    29    30 1   
    66    29    39 1   
    67    29    82 1   
    68    31    32 1   
    69    31    41 1   
    70    31    83 1   
    71    33    34 1   
    72    33    43 1   
    73    33    84 1   
    74    35    36 1   
    75    35    45 1   
    76    35    85 1   
    77    36    86 1   
    78    37    38 1   
    79    37    47 1   
    80    37    87 1   
    81    39    40 1   
    82    39    49 1   
    83    39    88 1   
    84    41    42 1   
    85    41    51 1   
    86    41    89 1   
    87    43    44 1   
    88    43    53 1   
    89    43    90 1   
    90    45    46 1   
    91    45    55 1   
    92    45    91 1   
    93    47    48 1   
    94    47    92 1   
    95    47    93 1   
    96    48    94 1   
    97    49    50 1   
    98    49    95 1   
    99    49    96 1   
   100    50    97 1   
   101    51    52 1   
   102    51    98 1   
   103    51    99 1   
   104    52   100 1   
   105    53    54 1   
   106    53   101 1   
   107    53   102 1   
   108    54   103 1   
   109    55    56 1   
   110    55   104 1   
   111    55   105 1   
   112    56   106 1   
@<TRIPOS>SUBSTRUCTURE
     1 CEX         1 TEMP              0 ****  ****    0 ROOT
