@<TRIPOS>MOLECULE
CEX
  108   112     1     0     0
SMALL
No Charge or Current Charge


@<TRIPOS>ATOM
      1 C1A          9.2960     3.2800    -0.7110 c6         1 CEX       0.357300
      2 O1A          8.9660     3.3210    -2.0960 oh         1 CEX      -0.722000
      3 C1B          6.1650    -0.5420     1.3640 c6         1 CEX       0.365300
      4 C1C          1.5410    -3.0900     0.5480 c6         1 CEX       0.364300
      5 C1D         -3.4050    -2.2920    -1.3060 c6         1 CEX       0.363300
      6 C1E         -7.2610     1.4010    -1.4980 c6         1 CEX       0.364300
      7 C2A          9.7260     1.8380    -0.2690 c6         1 CEX       0.119300
      8 O2A         10.8250     1.3400    -1.0670 oh         1 CEX      -0.707000
      9 C2B          5.9640    -1.9250     0.6520 c6         1 CEX       0.119300
     10 O2B          6.9380    -2.1780    -0.3920 oh         1 CEX      -0.728000
     11 C2C          1.0200    -3.3790    -0.9020 c6         1 CEX       0.119300
     12 O2C          2.0370    -3.2080    -1.9210 oh         1 CEX      -0.729000
     13 C2D         -3.6800    -1.2780    -2.4700 c6         1 CEX       0.122300
     14 O2D         -2.4790    -0.8770    -3.1760 oh         1 CEX      -0.731000
     15 C2E         -6.9260     2.9320    -1.5680 c6         1 CEX       0.120300
     16 O2E         -5.5400     3.1900    -1.9070 oh         1 CEX      -0.727000
     17 C3A          8.5160     0.8630    -0.3580 c6         1 CEX       0.162300
     18 O3A          8.9260    -0.4580     0.0560 oh         1 CEX      -0.738000
     19 C3B          4.5340    -1.9900     0.0520 c6         1 CEX       0.127300
     20 O3B          4.3620    -3.2530    -0.6200 oh         1 CEX      -0.733000
     21 C3C         -0.1830    -2.4490    -1.2110 c6         1 CEX       0.125300
     22 O3C         -0.6430    -2.7040    -2.5530 oh         1 CEX      -0.734000
     23 C3D         -4.3890    -0.0210    -1.8980 c6         1 CEX       0.133300
     24 O3D         -4.6200     0.9180    -2.9660 oh         1 CEX      -0.732000
     25 C3E         -7.2720     3.6000    -0.2070 c6         1 CEX       0.107300
     26 O3E         -7.0360     5.0180    -0.2720 oh         1 CEX      -0.668000
     27 C4A          7.3170     1.4270     0.4730 c6         1 CEX       0.161300
     28 O4A          6.1610     0.5550     0.4250 os         1 CEX      -0.495000
     29 C4B          3.4740    -1.7230     1.1710 c6         1 CEX       0.164300
     30 O4B          2.1190    -1.7720     0.6610 os         1 CEX      -0.498000
     31 C4C         -1.2890    -2.6300    -0.1200 c6         1 CEX       0.162300
     32 O4C         -2.4380    -1.7810    -0.3630 os         1 CEX      -0.494000
     33 C4D         -5.6890    -0.4430    -1.1380 c6         1 CEX       0.162300
     34 O4D         -6.3900     0.6980    -0.5840 os         1 CEX      -0.495000
     35 C4E         -8.7480     3.3020     0.1820 c6         1 CEX       0.150300
     36 O4E         -9.0360     3.9180     1.4500 oh         1 CEX      -0.719000
     37 C5A          6.9660     2.8460    -0.0610 c6         1 CEX       0.153300
     38 O5A          8.1370     3.7130     0.0230 os         1 CEX      -0.469000
     39 C5B          3.7730    -0.3400     1.8210 c6         1 CEX       0.152300
     40 O5B          5.1320    -0.3160     2.3450 os         1 CEX      -0.453000
     41 C5C         -0.6660    -2.3350     1.2760 c6         1 CEX       0.154300
     42 O5C          0.4730    -3.2120     1.5110 os         1 CEX      -0.453000
     43 C5D         -5.3070    -1.4570    -0.0200 c6         1 CEX       0.151300
     44 O5D         -4.6220    -2.6050    -0.5980 os         1 CEX      -0.454000
     45 C5E         -8.9750     1.7570     0.2040 c6         1 CEX       0.168300
     46 O5E         -8.6280     1.1870    -1.0900 os         1 CEX      -0.458000
     47 C6A          5.8030     3.5050     0.7500 c3         1 CEX       0.163600
     48 O6A          5.4880     4.8440     0.3120 oh         1 CEX      -0.714000
     49 C6B          2.7850    -0.0140     2.9880 c3         1 CEX       0.163600
     50 O6B          3.0650     1.2440     3.6400 oh         1 CEX      -0.721000
     51 C6C         -1.6970    -2.5390     2.4340 c3         1 CEX       0.163600
     52 O6C         -1.1360    -2.3160     3.7460 oh         1 CEX      -0.723000
     53 C6D         -6.5610    -1.9690     0.7620 c3         1 CEX       0.161600
     54 O6D         -6.2420    -2.9440     1.7780 oh         1 CEX      -0.723000
     55 C6E        -10.4580     1.3770     0.5290 c3         1 CEX       0.169600
     56 O6E        -10.7050    -0.0460     0.5080 oh         1 CEX      -0.722000
     57 H1A         10.1260     3.9750    -0.5100 h2         1 CEX       0.062700
     58 HO1A         8.6040     4.2240    -2.2390 ho         1 CEX       0.521000
     59 H1B          7.1320    -0.5770     1.8900 h2         1 CEX       0.084700
     60 H1C          2.3010    -3.8510     0.7860 h2         1 CEX       0.085700
     61 H1D         -3.0260    -3.2220    -1.7590 h2         1 CEX       0.086700
     62 H1E         -7.1410     0.9890    -2.5120 h2         1 CEX       0.083700
     63 H2A         10.0370     1.8970     0.7850 h1         1 CEX       0.053700
     64 HO2A        10.6860     1.7190    -1.9700 ho         1 CEX       0.512000
     65 H2B          6.0470    -2.6990     1.4300 h1         1 CEX       0.088700
     66 HO2B         7.6840    -1.5190    -0.2480 ho         1 CEX       0.541000
     67 H2C          0.6620    -4.4200    -0.9100 h1         1 CEX       0.086700
     68 HO2C         2.9190    -3.1920    -1.4370 ho         1 CEX       0.542000
     69 HO2D        -1.7690    -1.5430    -2.9230 ho         1 CEX       0.542000
     70 HO2E        -5.1770     2.3290    -2.2780 ho         1 CEX       0.539000
     71 H3A          8.1920     0.8270    -1.4100 h1         1 CEX       0.076700
     72 HO3A         9.8970    -0.4830    -0.1490 ho         1 CEX       0.530000
     73 H3B          4.4450    -1.1770    -0.6850 h1         1 CEX       0.062700
     74 HO3B         5.2820    -3.4750    -0.9230 ho         1 CEX       0.528000
     75 H3C          0.1740    -1.4100    -1.1460 h1         1 CEX       0.062700
     76 HO3C         0.1820    -2.9960    -3.0220 ho         1 CEX       0.529000
     77 H3D         -3.7120     0.4360    -1.1600 h1         1 CEX       0.062700
     78 HO3D        -3.8710     0.7360    -3.5930 ho         1 CEX       0.528000
     79 H3E         -6.6200     3.1530     0.5600 h1         1 CEX       0.058700
     80 HO3E        -6.2160     5.1090    -0.8120 ho         1 CEX       0.463000
     81 H4A          7.6290     1.5390     1.5230 h1         1 CEX       0.057700
     82 H4B          3.5810    -2.4860     1.9580 h1         1 CEX       0.060700
     83 H4C         -1.6230    -3.6790    -0.1160 h1         1 CEX       0.061700
     84 H4D         -6.3630    -0.9620    -1.8370 h1         1 CEX       0.059700
     85 H4E         -9.4020     3.7310    -0.5920 h1         1 CEX       0.048700
     86 HO4E        -8.5460     4.7770     1.4210 ho         1 CEX       0.525000
     87 H5A          6.6420     2.7670    -1.1090 h1         1 CEX       0.076700
     88 H5B          3.6670     0.4470     1.0600 h1         1 CEX       0.078700
     89 H5C         -0.3280    -1.2890     1.3060 h1         1 CEX       0.076700
     90 H5D         -4.6380    -0.9640     0.7010 h1         1 CEX       0.075700
     91 H5E         -8.3350     1.3080     0.9780 h1         1 CEX       0.076700
     92 H6A          4.9150     2.8640     0.6600 h1         1 CEX       0.042700
     93 H6AA         6.0890     3.5120     1.8110 h1         1 CEX       0.042700
     94 HO6A         4.8020     5.1950     0.9270 ho         1 CEX       0.507000
     95 H6B          1.7650    -0.0050     2.5810 h1         1 CEX       0.044700
     96 H6BA         2.8350    -0.8360     3.7160 h1         1 CEX       0.044700
     97 HO6B         2.4430     1.3210     4.4000 ho         1 CEX       0.509000
     98 H6C         -2.5400    -1.8550     2.2660 h1         1 CEX       0.046200
     99 H6CA        -2.0920    -3.5620     2.3610 h1         1 CEX       0.046200
    100 HO6C        -1.8360    -2.5410     4.4020 ho         1 CEX       0.509000
    101 H6D         -7.0570    -1.1020     1.2190 h1         1 CEX       0.046200
    102 H6DA        -7.2640    -2.3960     0.0340 h1         1 CEX       0.046200
    103 HO6D        -7.0970    -3.2560     2.1570 ho         1 CEX       0.508000
    104 H6E        -10.7070     1.7830     1.5190 h1         1 CEX       0.037200
    105 H6EA       -11.1060     1.8820    -0.2010 h1         1 CEX       0.037200
    106 HO6E       -11.6720    -0.1710     0.6510 ho         1 CEX       0.504000
    107 H2D         -4.3710    -1.7740    -3.1690 h1         1 CEX       0.083700
    108 H2E         -7.5820     3.3650    -2.3390 h1         1 CEX       0.085700
@<TRIPOS>BOND
     1     1     2 1   
     2     1     7 1   
     3     1    38 1   
     4     1    57 1   
     5     2    58 1   
     6     3     9 1   
     7     3    28 1   
     8     3    40 1   
     9     3    59 1   
    10     4    11 1   
    11     4    30 1   
    12     4    42 1   
    13     4    60 1   
    14     5    13 1   
    15     5    32 1   
    16     5    44 1   
    17     5    61 1   
    18     6    15 1   
    19     6    34 1   
    20     6    46 1   
    21     6    62 1   
    22     7     8 1   
    23     7    17 1   
    24     7    63 1   
    25     8    64 1   
    26     9    10 1   
    27     9    19 1   
    28     9    65 1   
    29    10    66 1   
    30    11    12 1   
    31    11    21 1   
    32    11    67 1   
    33    12    68 1   
    34    13    14 1   
    35    13    23 1   
    36    13   107 1   
    37    14    69 1   
    38    15    16 1   
    39    15    25 1   
    40    15   108 1   
    41    16    70 1   
    42    17    18 1   
    43    17    27 1   
    44    17    71 1   
    45    18    72 1   
    46    19    20 1   
    47    19    29 1   
    48    19    73 1   
    49    20    74 1   
    50    21    22 1   
    51    21    31 1   
    52    21    75 1   
    53    22    76 1   
    54    23    24 1   
    55    23    33 1   
    56    23    77 1   
    57    24    78 1   
    58    25    26 1   
    59    25    35 1   
    60    25    79 1   
    61    26    80 1   
    62    27    28 1   
    63    27    37 1   
    64    27    81 1   
    65    29    30 1   
    66    29    39 1   
    67    29    82 1   
    68    31    32 1   
    69    31    41 1   
    70    31    83 1   
    71    33    34 1   
    72    33    43 1   
    73    33    84 1   
    74    35    36 1   
    75    35    45 1   
    76    35    85 1   
    77    36    86 1   
    78    37    38 1   
    79    37    47 1   
    80    37    87 1   
    81    39    40 1   
    82    39    49 1   
    83    39    88 1   
    84    41    42 1   
    85    41    51 1   
    86    41    89 1   
    87    43    44 1   
    88    43    53 1   
    89    43    90 1   
    90    45    46 1   
    91    45    55 1   
    92    45    91 1   
    93    47    48 1   
    94    47    92 1   
    95    47    93 1   
    96    48    94 1   
    97    49    50 1   
    98    49    95 1   
    99    49    96 1   
   100    50    97 1   
   101    51    52 1   
   102    51    98 1   
   103    51    99 1   
   104    52   100 1   
   105    53    54 1   
   106    53   101 1   
   107    53   102 1   
   108    54   103 1   
   109    55    56 1   
   110    55   104 1   
   111    55   105 1   
   112    56   106 1   
@<TRIPOS>SUBSTRUCTURE
     1 CEX         1 TEMP              0 ****  ****    0 ROOT
