@<TRIPOS>MOLECULE
CEY
  129   134     1     0     0
SMALL
abcg2


@<TRIPOS>ATOM
      1 C1A          1.4440     6.1500     1.3490 c6         1 CEY       0.360300
      2 O1A          0.1920     5.5600     1.1790 oh         1 CEY      -0.746000
      3 C1B          4.7050     1.9980     1.9210 c6         1 CEY       0.363300
      4 C1C          3.4950    -3.1560     2.2080 c6         1 CEY       0.364300
      5 C1D         -1.2450    -5.2500     1.0540 c6         1 CEY       0.366300
      6 C1E         -4.9340    -2.2570    -1.2860 c6         1 CEY       0.366300
      7 C1F         -3.8660     2.4820    -3.3780 c6         1 CEY       0.367300
      8 C2A          2.3290     5.7950     0.1530 c6         1 CEY       0.115300
      9 O2A          1.7140     6.0710    -1.0780 oh         1 CEY      -0.713000
     10 C2B          5.2590     1.1130     0.8030 c6         1 CEY       0.115300
     11 O2B          5.4610     1.8150    -0.3920 oh         1 CEY      -0.725000
     12 C2C          3.4900    -4.1430     1.0400 c6         1 CEY       0.115300
     13 O2C          4.4670    -3.8460     0.0800 oh         1 CEY      -0.724000
     14 C2D         -1.6820    -5.7490    -0.3240 c6         1 CEY       0.115300
     15 O2D         -0.6480    -6.4010    -1.0110 oh         1 CEY      -0.724000
     16 C2E         -5.1650    -2.1550    -2.7950 c6         1 CEY       0.113300
     17 O2E         -4.9860    -3.3820    -3.4480 oh         1 CEY      -0.723000
     18 C2F         -3.7610     2.7280    -4.8860 c6         1 CEY       0.108300
     19 O2F         -4.5990     1.8820    -5.6260 oh         1 CEY      -0.728000
     20 C3A          2.6830     4.3150     0.1720 c6         1 CEY       0.166300
     21 O3A          3.6260     4.0050    -0.8310 oh         1 CEY      -0.735000
     22 C3B          4.3600    -0.1070     0.6130 c6         1 CEY       0.134300
     23 O3B          4.9290    -1.0180    -0.3020 oh         1 CEY      -0.733000
     24 C3C          2.0910    -4.2120     0.4340 c6         1 CEY       0.132300
     25 O3C          2.0010    -5.2330    -0.5380 oh         1 CEY      -0.732000
     26 C3D         -2.2580    -4.5830    -1.1250 c6         1 CEY       0.134300
     27 O3D         -2.8370    -5.0250    -2.3350 oh         1 CEY      -0.732000
     28 C3E         -4.2780    -1.0570    -3.3770 c6         1 CEY       0.136300
     29 O3E         -4.5920    -0.8190    -4.7340 oh         1 CEY      -0.734000
     30 C3F         -2.3020     2.6410    -5.3240 c6         1 CEY       0.103300
     31 O3F         -2.1400     3.0100    -6.6760 oh         1 CEY      -0.669000
     32 C4A          3.2910     3.9350     1.5150 c6         1 CEY       0.163300
     33 O4A          3.4830     2.5390     1.5030 os         1 CEY      -0.493000
     34 C4B          4.1720    -0.8330     1.9390 c6         1 CEY       0.165300
     35 O4B          3.2450    -1.8700     1.7160 os         1 CEY      -0.497000
     36 C4C          1.0400    -4.4940     1.5010 c6         1 CEY       0.168300
     37 O4C         -0.2090    -4.3290     0.8730 os         1 CEY      -0.504000
     38 C4D         -3.3380    -3.8480    -0.3390 c6         1 CEY       0.168300
     39 O4D         -3.6190    -2.6750    -1.0700 os         1 CEY      -0.504000
     40 C4E         -4.4710     0.2510    -2.6190 c6         1 CEY       0.165300
     41 O4E         -3.5040     1.1560    -3.0990 os         1 CEY      -0.499000
     42 C4F         -1.4520     3.5890    -4.4870 c6         1 CEY       0.150300
     43 O4F         -0.0820     3.4460    -4.7710 oh         1 CEY      -0.720000
     44 C5A          2.3550     4.3650     2.6510 c6         1 CEY       0.147300
     45 O5A          2.0700     5.7500     2.5340 os         1 CEY      -0.463000
     46 C5B          3.6670     0.1500     3.0040 c6         1 CEY       0.146300
     47 O5B          4.5550     1.2550     3.0880 os         1 CEY      -0.450000
     48 C5C          1.1920    -3.5130     2.6710 c6         1 CEY       0.146300
     49 O5C          2.5310    -3.5250     3.1430 os         1 CEY      -0.449000
     50 C5D         -2.8440    -3.4990     1.0710 c6         1 CEY       0.147300
     51 O5D         -2.3260    -4.6590     1.7050 os         1 CEY      -0.449000
     52 C5E         -4.3030     0.0220    -1.1110 c6         1 CEY       0.146300
     53 O5E         -5.1650    -1.0230    -0.6850 os         1 CEY      -0.448000
     54 C5F         -1.6590     3.2950    -3.0000 c6         1 CEY       0.168300
     55 O5F         -3.0430     3.3590    -2.6820 os         1 CEY      -0.446000
     56 C6A          2.9730     4.1650     4.0200 c3         1 CEY       0.162600
     57 O6A          2.0300     4.5520     4.9940 oh         1 CEY      -0.713000
     58 C6B          3.6070    -0.4660     4.3860 c3         1 CEY       0.162600
     59 O6B          3.1120     0.5010     5.2840 oh         1 CEY      -0.716000
     60 C6C          0.3080    -3.8670     3.8470 c3         1 CEY       0.162600
     61 O6C          0.4580    -2.8730     4.8340 oh         1 CEY      -0.714000
     62 C6D         -3.9480    -2.9660     1.9590 c3         1 CEY       0.162600
     63 O6D         -3.3920    -2.6260     3.2080 oh         1 CEY      -0.712000
     64 C6E         -4.6520     1.2480    -0.2940 c3         1 CEY       0.162600
     65 O6E         -4.4250     0.9560     1.0650 oh         1 CEY      -0.711000
     66 C6F         -0.9460     4.2950    -2.1160 c3         1 CEY       0.178600
     67 O6F         -1.0530     3.8790    -0.7790 oh         1 CEY      -0.733000
     68 H1A          1.3490     7.2390     1.4340 h2         1 CEY       0.064700
     69 HO1A        -0.4350     5.9390     1.8050 ho         1 CEY       0.529000
     70 H1B          5.4210     2.7950     2.1540 h2         1 CEY       0.081700
     71 H1C          4.4590    -3.1920     2.7290 h2         1 CEY       0.081700
     72 H1D         -0.9230    -6.0880     1.6830 h2         1 CEY       0.083700
     73 H1E         -5.6480    -2.9590    -0.8390 h2         1 CEY       0.081700
     74 H1F         -4.8880     2.6850    -3.0370 h2         1 CEY       0.077700
     75 H2A          3.2580     6.3710     0.2680 h1         1 CEY       0.057700
     76 HO2A         1.7260     7.0210    -1.2320 ho         1 CEY       0.514000
     77 H2B          6.2440     0.7590     1.1290 h1         1 CEY       0.090700
     78 HO2B         4.6990     2.3910    -0.5720 ho         1 CEY       0.539000
     79 H2C          3.7400    -5.1290     1.4450 h1         1 CEY       0.092700
     80 HO2C         4.4340    -2.9010    -0.1450 ho         1 CEY       0.539000
     81 H2D         -2.4730    -6.4920    -0.1710 h1         1 CEY       0.093700
     82 HO2D         0.1630    -5.8660    -0.9700 ho         1 CEY       0.537000
     83 H2E         -6.2110    -1.8670    -2.9480 h1         1 CEY       0.092700
     84 HO2E        -4.1510    -3.7890    -3.1620 ho         1 CEY       0.536000
     85 H2F         -4.1140     3.7490    -5.0730 h1         1 CEY       0.090700
     86 HO2F        -4.4280     0.9540    -5.3890 ho         1 CEY       0.537000
     87 H3A          1.7670     3.7230     0.0300 h1         1 CEY       0.079700
     88 HO3A         3.2100     4.1150    -1.6930 ho         1 CEY       0.531000
     89 H3B          3.3730     0.2230     0.2580 h1         1 CEY       0.063700
     90 HO3B         4.9370    -0.6110    -1.1750 ho         1 CEY       0.526000
     91 H3C          1.8520    -3.2370    -0.0160 h1         1 CEY       0.061700
     92 HO3C         2.5480    -4.9860    -1.2910 ho         1 CEY       0.524000
     93 H3D         -1.4520    -3.8650    -1.3290 h1         1 CEY       0.061700
     94 HO3D        -2.1340    -5.3350    -2.9150 ho         1 CEY       0.523000
     95 H3E         -3.2240    -1.3560    -3.2790 h1         1 CEY       0.060700
     96 HO3E        -4.3060    -1.5760    -5.2560 ho         1 CEY       0.524000
     97 H3F         -1.9380     1.6150    -5.1600 h1         1 CEY       0.055700
     98 HO3F        -2.5840     2.3550    -7.2230 ho         1 CEY       0.460000
     99 H4A          4.2540     4.4560     1.6300 h1         1 CEY       0.056700
    100 H4B          5.1410    -1.2410     2.2630 h1         1 CEY       0.058700
    101 H4C          1.1630    -5.5240     1.8700 h1         1 CEY       0.059700
    102 H4D         -4.2300    -4.4880    -0.2690 h1         1 CEY       0.059700
    103 H4E         -5.4880     0.6220    -2.8130 h1         1 CEY       0.059700
    104 H4F         -1.7920     4.6190    -4.6860 h1         1 CEY       0.048700
    105 HO4F         0.0480     3.6190    -5.7090 ho         1 CEY       0.522000
    106 H5A          1.4350     3.7680     2.5910 h1         1 CEY       0.080700
    107 H5B          2.6590     0.4860     2.7260 h1         1 CEY       0.083700
    108 H5C          0.9170    -2.5110     2.3160 h1         1 CEY       0.083700
    109 H5D         -2.0670    -2.7300     0.9830 h1         1 CEY       0.084700
    110 H5E         -3.2550    -0.2380    -0.9130 h1         1 CEY       0.084700
    111 H5F         -1.2610     2.2950    -2.7810 h1         1 CEY       0.076700
    112 H6A          3.2510     3.1140     4.1360 h1         1 CEY       0.042700
    113 H6AA         3.8930     4.7610     4.0870 h1         1 CEY       0.042700
    114 HO6A         2.3660     4.2820     5.8530 ho         1 CEY       0.507000
    115 H6B          2.9570    -1.3450     4.3540 h1         1 CEY       0.042200
    116 H6BA         4.6120    -0.8100     4.6700 h1         1 CEY       0.042200
    117 HO6B         3.0050     0.0790     6.1410 ho         1 CEY       0.506000
    118 H6C         -0.7280    -3.9290     3.5000 h1         1 CEY       0.041200
    119 H6CA         0.5900    -4.8610     4.2210 h1         1 CEY       0.041200
    120 HO6C        -0.1680    -3.0610     5.5390 ho         1 CEY       0.506000
    121 H6D         -4.3940    -2.0920     1.4740 h1         1 CEY       0.039700
    122 H6DA        -4.7360    -3.7270     2.0550 h1         1 CEY       0.039700
    123 HO6D        -4.0820    -2.2120     3.7330 ho         1 CEY       0.505000
    124 H6E         -4.0250     2.0810    -0.6300 h1         1 CEY       0.038700
    125 H6EA        -5.6990     1.5260    -0.4830 h1         1 CEY       0.038700
    126 HO6E        -4.6170     1.7490     1.5720 ho         1 CEY       0.505000
    127 H6F          0.0970     4.3580    -2.4400 h1         1 CEY       0.031700
    128 H6FA        -1.3880     5.2900    -2.2760 h1         1 CEY       0.031700
    129 HO6F        -0.5790     4.5130    -0.2210 ho         1 CEY       0.530000
@<TRIPOS>BOND
     1     1     2 1   
     2     1     8 1   
     3     1    45 1   
     4     1    68 1   
     5     2    69 1   
     6     3    10 1   
     7     3    33 1   
     8     3    47 1   
     9     3    70 1   
    10     4    12 1   
    11     4    35 1   
    12     4    49 1   
    13     4    71 1   
    14     5    14 1   
    15     5    37 1   
    16     5    51 1   
    17     5    72 1   
    18     6    16 1   
    19     6    39 1   
    20     6    53 1   
    21     6    73 1   
    22     7    18 1   
    23     7    41 1   
    24     7    55 1   
    25     7    74 1   
    26     8     9 1   
    27     8    20 1   
    28     8    75 1   
    29     9    76 1   
    30    10    11 1   
    31    10    22 1   
    32    10    77 1   
    33    11    78 1   
    34    12    13 1   
    35    12    24 1   
    36    12    79 1   
    37    13    80 1   
    38    14    15 1   
    39    14    26 1   
    40    14    81 1   
    41    15    82 1   
    42    16    17 1   
    43    16    28 1   
    44    16    83 1   
    45    17    84 1   
    46    18    19 1   
    47    18    30 1   
    48    18    85 1   
    49    19    86 1   
    50    20    21 1   
    51    20    32 1   
    52    20    87 1   
    53    21    88 1   
    54    22    23 1   
    55    22    34 1   
    56    22    89 1   
    57    23    90 1   
    58    24    25 1   
    59    24    36 1   
    60    24    91 1   
    61    25    92 1   
    62    26    27 1   
    63    26    38 1   
    64    26    93 1   
    65    27    94 1   
    66    28    29 1   
    67    28    40 1   
    68    28    95 1   
    69    29    96 1   
    70    30    31 1   
    71    30    42 1   
    72    30    97 1   
    73    31    98 1   
    74    32    33 1   
    75    32    44 1   
    76    32    99 1   
    77    34    35 1   
    78    34    46 1   
    79    34   100 1   
    80    36    37 1   
    81    36    48 1   
    82    36   101 1   
    83    38    39 1   
    84    38    50 1   
    85    38   102 1   
    86    40    41 1   
    87    40    52 1   
    88    40   103 1   
    89    42    43 1   
    90    42    54 1   
    91    42   104 1   
    92    43   105 1   
    93    44    45 1   
    94    44    56 1   
    95    44   106 1   
    96    46    47 1   
    97    46    58 1   
    98    46   107 1   
    99    48    49 1   
   100    48    60 1   
   101    48   108 1   
   102    50    51 1   
   103    50    62 1   
   104    50   109 1   
   105    52    53 1   
   106    52    64 1   
   107    52   110 1   
   108    54    55 1   
   109    54    66 1   
   110    54   111 1   
   111    56    57 1   
   112    56   112 1   
   113    56   113 1   
   114    57   114 1   
   115    58    59 1   
   116    58   115 1   
   117    58   116 1   
   118    59   117 1   
   119    60    61 1   
   120    60   118 1   
   121    60   119 1   
   122    61   120 1   
   123    62    63 1   
   124    62   121 1   
   125    62   122 1   
   126    63   123 1   
   127    64    65 1   
   128    64   124 1   
   129    64   125 1   
   130    65   126 1   
   131    66    67 1   
   132    66   127 1   
   133    66   128 1   
   134    67   129 1   
@<TRIPOS>SUBSTRUCTURE
     1 CEY         1 TEMP              0 ****  ****    0 ROOT
