@<TRIPOS>MOLECULE
CEY
  129   134     1     0     0
SMALL
No Charge or Current Charge


@<TRIPOS>ATOM
      1 C1A          2.2750     6.5950     0.7420 c6         1 CEY       0.360300
      2 O1A          0.9850     6.3070     0.2010 oh         1 CEY      -0.746000
      3 C1B          4.7340     1.8720     1.4520 c6         1 CEY       0.363300
      4 C1C          3.3000    -3.1650     2.8750 c6         1 CEY       0.364300
      5 C1D         -1.0020    -5.4770     0.5410 c6         1 CEY       0.366300
      6 C1E         -5.0400    -2.2790    -1.1680 c6         1 CEY       0.366300
      7 C1F         -3.9320     2.6870    -2.9840 c6         1 CEY       0.367300
      8 C2A          3.4320     6.0050    -0.1380 c6         1 CEY       0.115300
      9 O2A          3.3550     6.4640    -1.5070 oh         1 CEY      -0.713000
     10 C2B          4.8100     0.7680     0.3450 c6         1 CEY       0.115300
     11 O2B          4.5270     1.2710    -0.9860 oh         1 CEY      -0.725000
     12 C2C          3.4570    -4.1550     1.6710 c6         1 CEY       0.115300
     13 O2C          4.4990    -3.7720     0.7410 oh         1 CEY      -0.724000
     14 C2D         -1.1380    -5.2950    -1.0090 c6         1 CEY       0.115300
     15 O2D          0.1210    -5.2590    -1.7300 oh         1 CEY      -0.724000
     16 C2E         -4.9960    -2.1230    -2.7290 c6         1 CEY       0.113300
     17 O2E         -4.5290    -3.3110    -3.4160 oh         1 CEY      -0.723000
     18 C2F         -4.0660     2.7960    -4.5490 c6         1 CEY       0.108300
     19 O2F         -4.9170     1.7750    -5.1280 oh         1 CEY      -0.728000
     20 C3A          3.4230     4.4510    -0.0880 c6         1 CEY       0.166300
     21 O3A          4.5190     3.9350    -0.8720 oh         1 CEY      -0.735000
     22 C3B          3.8120    -0.3700     0.6850 c6         1 CEY       0.134300
     23 O3B          3.9230    -1.4140    -0.3030 oh         1 CEY      -0.733000
     24 C3C          2.1050    -4.2540     0.9110 c6         1 CEY       0.132300
     25 O3C          2.2220    -5.2140    -0.1560 oh         1 CEY      -0.732000
     26 C3D         -1.8990    -3.9740    -1.2800 c6         1 CEY       0.134300
     27 O3D         -2.0470    -3.7990    -2.7020 oh         1 CEY      -0.732000
     28 C3E         -4.0830    -0.9170    -3.0950 c6         1 CEY       0.136300
     29 O3E         -4.0960    -0.6970    -4.5230 oh         1 CEY      -0.734000
     30 C3F         -2.6550     2.7300    -5.2020 c6         1 CEY       0.103300
     31 O3F         -2.7520     2.9210    -6.6260 oh         1 CEY      -0.669000
     32 C4A          3.4560     3.9650     1.3950 c6         1 CEY       0.163300
     33 O4A          3.4420     2.5200     1.4860 os         1 CEY      -0.493000
     34 C4B          4.0180    -0.9070     2.1350 c6         1 CEY       0.165300
     35 O4B          2.9490    -1.8290     2.4520 os         1 CEY      -0.497000
     36 C4C          0.9090    -4.5780     1.8610 c6         1 CEY       0.168300
     37 O4C         -0.3390    -4.3570     1.1650 os         1 CEY      -0.504000
     38 C4D         -3.2650    -3.9060    -0.5270 c6         1 CEY       0.168300
     39 O4D         -3.7430    -2.5410    -0.5920 os         1 CEY      -0.504000
     40 C4E         -4.4910     0.3740    -2.3280 c6         1 CEY       0.165300
     41 O4E         -3.4790     1.3850    -2.5660 os         1 CEY      -0.499000
     42 C4F         -1.7110     3.7920    -4.5730 c6         1 CEY       0.150300
     43 O4F         -0.4160     3.6920    -5.1900 oh         1 CEY      -0.720000
     44 C5A          2.2520     4.5890     2.1560 c6         1 CEY       0.147300
     45 O5A          2.3140     6.0440     2.0690 os         1 CEY      -0.463000
     46 C5B          4.0390     0.2710     3.1560 c6         1 CEY       0.146300
     47 O5B          4.9910     1.2960     2.7490 os         1 CEY      -0.450000
     48 C5C          0.9340    -3.6700     3.1290 c6         1 CEY       0.146300
     49 O5C          2.2540    -3.6390     3.7440 os         1 CEY      -0.449000
     50 C5D         -3.1190    -4.3420     0.9680 c6         1 CEY       0.147300
     51 O5D         -2.3250    -5.5600     1.1080 os         1 CEY      -0.449000
     52 C5E         -4.6750     0.1050    -0.8020 c6         1 CEY       0.146300
     53 O5E         -5.5300    -1.0560    -0.5800 os         1 CEY      -0.448000
     54 C5F         -1.6590     3.5810    -3.0280 c6         1 CEY       0.168300
     55 O5F         -3.0050     3.6700    -2.4750 os         1 CEY      -0.446000
     56 C6A          2.2440     4.1820     3.6660 c3         1 CEY       0.162600
     57 O6A          1.1740     4.7950     4.4170 oh         1 CEY      -0.713000
     58 C6B          4.4010    -0.2000     4.6020 c3         1 CEY       0.162600
     59 O6B          4.4540     0.8800     5.5570 oh         1 CEY      -0.716000
     60 C6C         -0.1090    -4.1380     4.1950 c3         1 CEY       0.162600
     61 O6C         -0.1040    -3.3350     5.3940 oh         1 CEY      -0.714000
     62 C6D         -4.5060    -4.5640     1.6530 c3         1 CEY       0.162600
     63 O6D         -4.4030    -4.9760     3.0320 oh         1 CEY      -0.712000
     64 C6E         -5.2920     1.3300    -0.0520 c3         1 CEY       0.162600
     65 O6E         -5.5220     1.0870     1.3510 oh         1 CEY      -0.711000
     66 C6F         -0.7430     4.6290    -2.3100 c3         1 CEY       0.178600
     67 O6F         -0.6640     4.4410    -0.8830 oh         1 CEY      -0.733000
     68 H1A          2.4090     7.6860     0.8060 h2         1 CEY       0.064700
     69 HO1A         0.3760     6.8070     0.7970 ho         1 CEY       0.529000
     70 H1B          5.5190     2.6140     1.2400 h2         1 CEY       0.081700
     71 H1C          4.2400    -3.1400     3.4470 h2         1 CEY       0.081700
     72 H1D         -0.4610    -6.4130     0.7490 h2         1 CEY       0.083700
     73 H1E         -5.7340    -3.0930    -0.9050 h2         1 CEY       0.081700
     74 H1F         -4.9170     2.8890    -2.5360 h2         1 CEY       0.077700
     75 H2A          4.3790     6.3480     0.3060 h1         1 CEY       0.057700
     76 HO2A         2.3960     6.6300    -1.6800 ho         1 CEY       0.514000
     77 H2B          5.8290     0.3530     0.3780 h1         1 CEY       0.090700
     78 HO2B         4.4970     2.2740    -0.9160 ho         1 CEY       0.539000
     79 H2C          3.6840    -5.1440     2.0990 h1         1 CEY       0.092700
     80 HO2C         4.2460    -2.8670     0.3790 ho         1 CEY       0.539000
     81 H2D         -1.7540    -6.1290    -1.3800 h1         1 CEY       0.093700
     82 HO2D         0.8630    -5.2130    -1.0510 ho         1 CEY       0.537000
     83 H2E         -6.0200    -1.8860    -3.0540 h1         1 CEY       0.092700
     84 HO2E        -3.5850    -3.4740    -3.1030 ho         1 CEY       0.536000
     85 H2F         -4.4890     3.7900    -4.7600 h1         1 CEY       0.090700
     86 HO2F        -4.5370     0.8840    -4.8550 ho         1 CEY       0.537000
     87 H3A          2.4720     4.1070    -0.5220 h1         1 CEY       0.079700
     88 HO3A         4.6620     4.6280    -1.5670 ho         1 CEY       0.531000
     89 H3B          2.8000     0.0600     0.6440 h1         1 CEY       0.063700
     90 HO3B         4.0140    -0.9160    -1.1550 ho         1 CEY       0.526000
     91 H3C          1.9020    -3.2620     0.4800 h1         1 CEY       0.061700
     92 HO3C         3.1850    -5.2060    -0.3920 ho         1 CEY       0.524000
     93 H3D         -1.2790    -3.1540    -0.8850 h1         1 CEY       0.061700
     94 HO3D        -1.1870    -4.1400    -3.0600 ho         1 CEY       0.523000
     95 H3E         -3.0600    -1.1680    -2.7760 h1         1 CEY       0.060700
     96 HO3E        -4.0790    -1.6040    -4.9190 ho         1 CEY       0.524000
     97 H3F         -2.2340     1.7340    -4.9920 h1         1 CEY       0.055700
     98 HO3F        -3.5970     2.4880    -6.8880 ho         1 CEY       0.460000
     99 H4A          4.3730     4.3400     1.8740 h1         1 CEY       0.056700
    100 H4B          4.9860    -1.4280     2.1820 h1         1 CEY       0.058700
    101 H4C          0.9730    -5.6270     2.1880 h1         1 CEY       0.059700
    102 H4D         -3.9770    -4.5810    -1.0240 h1         1 CEY       0.059700
    103 H4E         -5.4570     0.7140    -2.7300 h1         1 CEY       0.059700
    104 H4F         -2.1350     4.7900    -4.7660 h1         1 CEY       0.048700
    105 HO4F        -0.6150     3.4870    -6.1360 ho         1 CEY       0.522000
    106 H5A          1.3130     4.2340     1.7070 h1         1 CEY       0.080700
    107 H5B          3.0350     0.7160     3.1980 h1         1 CEY       0.083700
    108 H5C          0.6570    -2.6480     2.8310 h1         1 CEY       0.083700
    109 H5D         -2.6180    -3.5310     1.5150 h1         1 CEY       0.084700
    110 H5E         -3.6880    -0.0870    -0.3580 h1         1 CEY       0.084700
    111 H5F         -1.2490     2.5830    -2.8150 h1         1 CEY       0.076700
    112 H6A          2.1640     3.0880     3.7270 h1         1 CEY       0.042700
    113 H6AA         3.2150     4.4590     4.0980 h1         1 CEY       0.042700
    114 HO6A         1.2990     4.5370     5.3600 ho         1 CEY       0.507000
    115 H6B          3.6520    -0.9410     4.9170 h1         1 CEY       0.042200
    116 H6BA         5.3700    -0.7160     4.5600 h1         1 CEY       0.042200
    117 HO6B         4.7530     0.4950     6.4140 ho         1 CEY       0.506000
    118 H6C         -1.1050    -4.1120     3.7320 h1         1 CEY       0.041200
    119 H6CA         0.1050    -5.1870     4.4430 h1         1 CEY       0.041200
    120 HO6C        -0.7590    -3.7360     6.0120 ho         1 CEY       0.506000
    121 H6D         -5.0740    -3.6260     1.5860 h1         1 CEY       0.039700
    122 H6DA        -5.0560    -5.3190     1.0740 h1         1 CEY       0.039700
    123 HO6D        -5.3190    -5.1530     3.3500 ho         1 CEY       0.505000
    124 H6E         -4.6100     2.1830    -0.1730 h1         1 CEY       0.038700
    125 H6EA        -6.2360     1.5950    -0.5480 h1         1 CEY       0.038700
    126 HO6E        -5.9640     1.8880     1.7160 ho         1 CEY       0.505000
    127 H6F          0.2630     4.5610    -2.7440 h1         1 CEY       0.031700
    128 H6FA        -1.1270     5.6330    -2.5360 h1         1 CEY       0.031700
    129 HO6F        -0.0240     5.1250    -0.5380 ho         1 CEY       0.530000
@<TRIPOS>BOND
     1     1     2 1   
     2     1     8 1   
     3     1    45 1   
     4     1    68 1   
     5     2    69 1   
     6     3    10 1   
     7     3    33 1   
     8     3    47 1   
     9     3    70 1   
    10     4    12 1   
    11     4    35 1   
    12     4    49 1   
    13     4    71 1   
    14     5    14 1   
    15     5    37 1   
    16     5    51 1   
    17     5    72 1   
    18     6    16 1   
    19     6    39 1   
    20     6    53 1   
    21     6    73 1   
    22     7    18 1   
    23     7    41 1   
    24     7    55 1   
    25     7    74 1   
    26     8     9 1   
    27     8    20 1   
    28     8    75 1   
    29     9    76 1   
    30    10    11 1   
    31    10    22 1   
    32    10    77 1   
    33    11    78 1   
    34    12    13 1   
    35    12    24 1   
    36    12    79 1   
    37    13    80 1   
    38    14    15 1   
    39    14    26 1   
    40    14    81 1   
    41    15    82 1   
    42    16    17 1   
    43    16    28 1   
    44    16    83 1   
    45    17    84 1   
    46    18    19 1   
    47    18    30 1   
    48    18    85 1   
    49    19    86 1   
    50    20    21 1   
    51    20    32 1   
    52    20    87 1   
    53    21    88 1   
    54    22    23 1   
    55    22    34 1   
    56    22    89 1   
    57    23    90 1   
    58    24    25 1   
    59    24    36 1   
    60    24    91 1   
    61    25    92 1   
    62    26    27 1   
    63    26    38 1   
    64    26    93 1   
    65    27    94 1   
    66    28    29 1   
    67    28    40 1   
    68    28    95 1   
    69    29    96 1   
    70    30    31 1   
    71    30    42 1   
    72    30    97 1   
    73    31    98 1   
    74    32    33 1   
    75    32    44 1   
    76    32    99 1   
    77    34    35 1   
    78    34    46 1   
    79    34   100 1   
    80    36    37 1   
    81    36    48 1   
    82    36   101 1   
    83    38    39 1   
    84    38    50 1   
    85    38   102 1   
    86    40    41 1   
    87    40    52 1   
    88    40   103 1   
    89    42    43 1   
    90    42    54 1   
    91    42   104 1   
    92    43   105 1   
    93    44    45 1   
    94    44    56 1   
    95    44   106 1   
    96    46    47 1   
    97    46    58 1   
    98    46   107 1   
    99    48    49 1   
   100    48    60 1   
   101    48   108 1   
   102    50    51 1   
   103    50    62 1   
   104    50   109 1   
   105    52    53 1   
   106    52    64 1   
   107    52   110 1   
   108    54    55 1   
   109    54    66 1   
   110    54   111 1   
   111    56    57 1   
   112    56   112 1   
   113    56   113 1   
   114    57   114 1   
   115    58    59 1   
   116    58   115 1   
   117    58   116 1   
   118    59   117 1   
   119    60    61 1   
   120    60   118 1   
   121    60   119 1   
   122    61   120 1   
   123    62    63 1   
   124    62   121 1   
   125    62   122 1   
   126    63   123 1   
   127    64    65 1   
   128    64   124 1   
   129    64   125 1   
   130    65   126 1   
   131    66    67 1   
   132    66   127 1   
   133    66   128 1   
   134    67   129 1   
@<TRIPOS>SUBSTRUCTURE
     1 CEY         1 TEMP              0 ****  ****    0 ROOT
