@<TRIPOS>MOLECULE
CEZ
   45    45     1     0     0
SMALL
No Charge or Current Charge


@<TRIPOS>ATOM
      1 O1          -0.2590    -0.8240    -0.6710 os         1 CEZ      -0.435000
      2 C1           1.0800    -0.6240    -0.1780 c6         1 CEZ       0.373300
      3 C2           2.1010    -0.7010    -1.3600 c6         1 CEZ       0.112300
      4 O2           2.0350    -1.9610    -2.0760 oh         1 CEZ      -0.740000
      5 O5           1.1760     0.6690     0.4470 os         1 CEZ      -0.433000
      6 C5           2.4670     0.9280     1.0600 c6         1 CEZ       0.181300
      7 C4           3.5860     0.8930    -0.0310 c6         1 CEZ       0.138300
      8 O4           4.9020     1.0800     0.5270 oh         1 CEZ      -0.724000
      9 C3           3.5280    -0.4660    -0.7910 c6         1 CEZ       0.137300
     10 O3           4.4980    -0.5020    -1.8520 oh         1 CEZ      -0.672000
     11 C6           2.3950     2.3040     1.8010 c3         1 CEZ       0.173600
     12 O6           1.3350     2.3750     2.7770 oh         1 CEZ      -0.702000
     13 C11         -3.4980     2.3090    -0.1390 c          1 CEZ       0.697000
     14 O11         -3.9240     3.1200    -0.9510 o          1 CEZ      -0.716500
     15 C21         -2.2990     1.4000    -0.5820 c3         1 CEZ      -0.016700
     16 O21         -1.9350     1.5970    -1.9930 oh         1 CEZ      -0.707000
     17 C31         -2.5710    -0.1100    -0.3000 c3         1 CEZ       0.172300
     18 O31         -2.9750    -0.6690    -1.5570 oh         1 CEZ      -0.721000
     19 C41         -1.3380    -0.8660     0.3000 c3         1 CEZ       0.116300
     20 C51         -1.6660    -2.3490     0.6750 c3         1 CEZ       0.151300
     21 O51         -2.6850    -2.3920     1.6910 oh         1 CEZ      -0.686000
     22 C61         -0.4630    -3.1670     1.2150 c3         1 CEZ       0.117600
     23 O61         -0.9220    -4.4360     1.7150 oh         1 CEZ      -0.648000
     24 H1           1.3230    -1.3990     0.5610 h2         1 CEZ       0.008700
     25 H2           1.8650     0.1280    -2.0440 h1         1 CEZ       0.079700
     26 H3           1.0800    -2.1100    -2.2790 ho         1 CEZ       0.528000
     27 H4           2.6630     0.1460     1.8090 h1         1 CEZ       0.046700
     28 H5           3.3750     1.6960    -0.7540 h1         1 CEZ       0.061700
     29 H6           5.5190     0.7360    -0.1650 ho         1 CEZ       0.516000
     30 H7           3.7410    -1.2720    -0.0720 h1         1 CEZ       0.042700
     31 H8           4.1770    -1.2140    -2.4550 ho         1 CEZ       0.459000
     32 H9           3.3620     2.4820     2.2890 h1         1 CEZ       0.032700
     33 H10          2.2630     3.0910     1.0460 h1         1 CEZ       0.032700
     34 H11          1.3410     3.2900     3.1420 ho         1 CEZ       0.502000
     35 H13         -1.4620     1.7160     0.0550 h1         1 CEZ       0.052700
     36 H14         -2.3440     2.4620    -2.2470 ho         1 CEZ       0.475000
     37 H15         -3.3860    -0.1930     0.4330 h1         1 CEZ       0.097700
     38 H16         -2.5700     0.0050    -2.1660 ho         1 CEZ       0.513000
     39 H17         -1.0470    -0.3400     1.2190 h1         1 CEZ       0.045700
     40 H18         -2.0210    -2.8520    -0.2360 h1         1 CEZ       0.102700
     41 H19         -2.5380    -3.2680     2.1230 ho         1 CEZ       0.488000
     42 H20          0.2610    -3.3250     0.4050 h1         1 CEZ       0.017700
     43 H21          0.0360    -2.6030     2.0140 h1         1 CEZ       0.017700
     44 H22         -0.1250    -4.9530     1.9700 ho         1 CEZ       0.427000
     45 O12         -3.9290     2.2060     1.0010 o          1 CEZ      -0.716500
@<TRIPOS>BOND
     1     1     2 1   
     2     1    19 1   
     3     2     3 1   
     4     2     5 1   
     5     2    24 1   
     6     3     4 1   
     7     3     9 1   
     8     3    25 1   
     9     4    26 1   
    10     5     6 1   
    11     6     7 1   
    12     6    11 1   
    13     6    27 1   
    14     7     8 1   
    15     7     9 1   
    16     7    28 1   
    17     8    29 1   
    18     9    10 1   
    19     9    30 1   
    20    10    31 1   
    21    11    12 1   
    22    11    32 1   
    23    11    33 1   
    24    12    34 1   
    25    13    14 1   
    26    13    15 1   
    27    13    45 1   
    28    15    16 1   
    29    15    17 1   
    30    15    35 1   
    31    16    36 1   
    32    17    18 1   
    33    17    19 1   
    34    17    37 1   
    35    18    38 1   
    36    19    20 1   
    37    19    39 1   
    38    20    21 1   
    39    20    22 1   
    40    20    40 1   
    41    21    41 1   
    42    22    23 1   
    43    22    42 1   
    44    22    43 1   
    45    23    44 1   
@<TRIPOS>SUBSTRUCTURE
     1 CEZ         1 TEMP              0 ****  ****    0 ROOT
