@<TRIPOS>MOLECULE
CEZ
   45    45     1     0     0
SMALL
bcc


@<TRIPOS>ATOM
      1 O1          -0.2130    -0.8840    -0.6090 os         1 CEZ      -0.388600
      2 C1           1.0450    -0.6090    -0.1230 c6         1 CEZ       0.326900
      3 C2           2.0660    -0.8450    -1.2320 c6         1 CEZ       0.089100
      4 O2           2.1050    -2.1920    -1.6360 oh         1 CEZ      -0.617800
      5 O5           1.0990     0.7300     0.2810 os         1 CEZ      -0.386600
      6 C5           2.3160     1.0750     0.9000 c6         1 CEZ       0.158100
      7 C4           3.4550     0.9260    -0.1120 c6         1 CEZ       0.115100
      8 O4           4.6670     1.1940     0.5500 oh         1 CEZ      -0.601800
      9 C3           3.4450    -0.4830    -0.6970 c6         1 CEZ       0.114100
     10 O3           4.4350    -0.5300    -1.6970 oh         1 CEZ      -0.609800
     11 C6           2.1900     2.4970     1.4050 c3         1 CEZ       0.150400
     12 O6           1.1680     2.5450     2.3720 oh         1 CEZ      -0.579800
     13 C11         -3.2460     2.3280     0.0210 c          1 CEZ       0.907600
     14 O11         -3.4790     3.0930    -0.9430 o          1 CEZ      -0.821800
     15 C21         -2.0140     1.4090    -0.1660 c3         1 CEZ      -0.039900
     16 O21         -1.4720     1.6420    -1.4430 oh         1 CEZ      -0.644800
     17 C31         -2.4170    -0.0650    -0.0140 c3         1 CEZ       0.149100
     18 O31         -3.0810    -0.4940    -1.1800 oh         1 CEZ      -0.598800
     19 C41         -1.2520    -0.9860     0.3560 c3         1 CEZ       0.093100
     20 C51         -1.6930    -2.4570     0.4620 c3         1 CEZ       0.128100
     21 O51         -2.8180    -2.5830     1.3030 oh         1 CEZ      -0.563800
     22 C61         -0.5590    -3.3610     0.9220 c3         1 CEZ       0.094400
     23 O61         -1.0310    -4.6890     0.9540 oh         1 CEZ      -0.585800
     24 H1           1.2920    -1.2590     0.7400 h2         1 CEZ       0.008700
     25 H2           1.8150    -0.1810    -2.0720 h1         1 CEZ       0.079700
     26 H3           1.3070    -2.3830    -2.1390 ho         1 CEZ       0.429000
     27 H4           2.5160     0.4030     1.7520 h1         1 CEZ       0.046700
     28 H5           3.2840     1.6450    -0.9300 h1         1 CEZ       0.061700
     29 H6           5.3860     1.0780    -0.0790 ho         1 CEZ       0.417000
     30 H7           3.6860    -1.1840     0.1200 h1         1 CEZ       0.042700
     31 H8           4.5490    -1.4440    -1.9730 ho         1 CEZ       0.420000
     32 H9           3.1560     2.8040     1.8200 h1         1 CEZ       0.032700
     33 H10          1.9780     3.1570     0.5530 h1         1 CEZ       0.032700
     34 H11          1.1230     3.4440     2.7090 ho         1 CEZ       0.403000
     35 H13         -1.2860     1.6590     0.6170 h1         1 CEZ       0.052700
     36 H14         -2.0660     2.3420    -1.7810 ho         1 CEZ       0.436000
     37 H15         -3.1270    -0.1250     0.8130 h1         1 CEZ       0.097700
     38 H16         -2.6120    -0.0790    -1.9160 ho         1 CEZ       0.414000
     39 H17         -0.8880    -0.6580     1.3410 h1         1 CEZ       0.045700
     40 H18         -2.0200    -2.7880    -0.5280 h1         1 CEZ       0.102700
     41 H19         -2.5600    -2.3460     2.2000 ho         1 CEZ       0.389000
     42 H20          0.2910    -3.2640     0.2380 h1         1 CEZ       0.017700
     43 H21         -0.2130    -3.0330     1.9150 h1         1 CEZ       0.017700
     44 H22         -0.2990    -5.2540     1.2160 ho         1 CEZ       0.388000
     45 O12         -3.8740     2.2430     1.0860 o          1 CEZ      -0.821800
@<TRIPOS>BOND
     1     1     2 1   
     2     1    19 1   
     3     2     3 1   
     4     2     5 1   
     5     2    24 1   
     6     3     4 1   
     7     3     9 1   
     8     3    25 1   
     9     4    26 1   
    10     5     6 1   
    11     6     7 1   
    12     6    11 1   
    13     6    27 1   
    14     7     8 1   
    15     7     9 1   
    16     7    28 1   
    17     8    29 1   
    18     9    10 1   
    19     9    30 1   
    20    10    31 1   
    21    11    12 1   
    22    11    32 1   
    23    11    33 1   
    24    12    34 1   
    25    13    14 1   
    26    13    15 1   
    27    13    45 1   
    28    15    16 1   
    29    15    17 1   
    30    15    35 1   
    31    16    36 1   
    32    17    18 1   
    33    17    19 1   
    34    17    37 1   
    35    18    38 1   
    36    19    20 1   
    37    19    39 1   
    38    20    21 1   
    39    20    22 1   
    40    20    40 1   
    41    21    41 1   
    42    22    23 1   
    43    22    42 1   
    44    22    43 1   
    45    23    44 1   
@<TRIPOS>SUBSTRUCTURE
     1 CEZ         1 TEMP              0 ****  ****    0 ROOT
