@<TRIPOS>MOLECULE
CF0
    5     4     1     0     0
SMALL
No Charge or Current Charge


@<TRIPOS>ATOM
      1 C1          -0.0290     0.0610    -0.0120 c3         1 CF0       0.172900
      2 F1           1.3240     0.0740    -0.1020 f          1 CF0      -0.272000
      3 H1          -0.3200     0.0200     1.0450 h1         1 CF0       0.033033
      4 H2          -0.4300     0.9720    -0.4720 h1         1 CF0       0.033033
      5 H3          -0.4160    -0.8210    -0.5370 h1         1 CF0       0.033033
@<TRIPOS>BOND
     1     1     2 1   
     2     1     3 1   
     3     1     4 1   
     4     1     5 1   
@<TRIPOS>SUBSTRUCTURE
     1 CF0         1 TEMP              0 ****  ****    0 ROOT
