@<TRIPOS>MOLECULE
CF0
    5     4     1     0     0
SMALL
abcg2


@<TRIPOS>ATOM
      1 C1          -0.0350     0.0610    -0.0120 c3         1 CF0       0.172900
      2 F1           1.3510     0.0740    -0.1030 f          1 CF0      -0.272000
      3 H1          -0.3270     0.0200     1.0370 h1         1 CF0       0.033033
      4 H2          -0.4370     0.9650    -0.4680 h1         1 CF0       0.033033
      5 H3          -0.4230    -0.8140    -0.5320 h1         1 CF0       0.033033
@<TRIPOS>BOND
     1     1     2 1   
     2     1     3 1   
     3     1     4 1   
     4     1     5 1   
@<TRIPOS>SUBSTRUCTURE
     1 CF0         1 TEMP              0 ****  ****    0 ROOT
