@<TRIPOS>MOLECULE
CF1
   33    34     1     0     0
SMALL
No Charge or Current Charge


@<TRIPOS>ATOM
      1 O23         -2.7840     2.5250     2.8280 o          1 CF1      -0.700500
      2 C23         -2.0490     2.4180     1.8560 c          1 CF1       0.719600
      3 O24         -1.0970     3.1630     1.6570 o          1 CF1      -0.700500
      4 C21         -2.3630     1.3390     0.8400 ca         1 CF1      -0.152600
      5 C5          -3.7020     0.9020     0.6880 ca         1 CF1      -0.088000
      6 C4          -4.0450    -0.0840    -0.2490 ca         1 CF1       0.076100
      7 O1          -5.3720    -0.4550    -0.3420 os         1 CF1      -0.347100
      8 C2          -5.8250    -1.4550    -1.2720 c3         1 CF1       0.156900
      9 C3          -3.0420    -0.6470    -1.0620 ca         1 CF1      -0.182000
     10 C8          -1.7100    -0.2250    -0.9170 ca         1 CF1      -0.156000
     11 C7          -1.3560     0.7460     0.0400 ca         1 CF1       0.280000
     12 N1          -0.0290     1.1540     0.1670 nu         1 CF1      -0.976000
     13 C9           1.2220     0.5980    -0.1420 ca         1 CF1       0.368000
     14 C10          2.3490     1.4370    -0.3170 ca         1 CF1       0.062000
     15 Cl1          2.2060     3.1940    -0.1790 cl         1 CF1      -0.190000
     16 C11          3.6060     0.8810    -0.6060 ca         1 CF1      -0.078000
     17 C12          3.7560    -0.5110    -0.7130 ca         1 CF1      -0.142000
     18 C15          1.3920    -0.7970    -0.2270 ca         1 CF1      -0.155000
     19 C13          2.6500    -1.3670    -0.5270 ca         1 CF1      -0.155300
     20 C14          2.8100    -2.8920    -0.6110 c3         1 CF1       0.352300
     21 F1           3.8400    -3.2620    -1.4080 f          1 CF1      -0.121667
     22 F3           3.0410    -3.4300     0.6070 f          1 CF1      -0.121667
     23 F2           1.7050    -3.4950    -1.1070 f          1 CF1      -0.121667
     24 H5          -4.4890     1.3380     1.2980 ha         1 CF1       0.146000
     25 H2          -5.6100    -1.1530    -2.3050 h1         1 CF1       0.025700
     26 H2A         -5.3370    -2.4180    -1.0770 h1         1 CF1       0.025700
     27 H2B         -6.9090    -1.5970    -1.1780 h1         1 CF1       0.025700
     28 H3          -3.2730    -1.4000    -1.8100 ha         1 CF1       0.095000
     29 H8          -0.9550    -0.6490    -1.5720 ha         1 CF1       0.103000
     30 HN1          0.0330     2.0790     0.6220 hn         1 CF1       0.579000
     31 H11          4.4660     1.5320    -0.7430 ha         1 CF1       0.116000
     32 H12          4.7410    -0.9210    -0.9310 ha         1 CF1       0.118000
     33 H15          0.5430    -1.4470    -0.0360 ha         1 CF1       0.138000
@<TRIPOS>BOND
     1     1     2 1   
     2     2     3 1   
     3     2     4 1   
     4     4     5 ar  
     5     4    11 ar  
     6     5     6 ar  
     7     5    24 1   
     8     6     7 1   
     9     6     9 ar  
    10     7     8 1   
    11     8    25 1   
    12     8    26 1   
    13     8    27 1   
    14     9    10 ar  
    15     9    28 1   
    16    10    11 ar  
    17    10    29 1   
    18    11    12 1   
    19    12    13 1   
    20    12    30 1   
    21    13    14 ar  
    22    13    18 ar  
    23    14    15 1   
    24    14    16 ar  
    25    16    17 ar  
    26    16    31 1   
    27    17    19 ar  
    28    17    32 1   
    29    18    19 ar  
    30    18    33 1   
    31    19    20 1   
    32    20    21 1   
    33    20    22 1   
    34    20    23 1   
@<TRIPOS>SUBSTRUCTURE
     1 CF1         1 TEMP              0 ****  ****    0 ROOT
