@<TRIPOS>MOLECULE
CF1
   33    34     1     0     0
SMALL
abcg2


@<TRIPOS>ATOM
      1 O23         -2.9410     2.6470     2.6630 o          1 CF1      -0.700500
      2 C23         -2.0390     2.3980     1.8520 c          1 CF1       0.719600
      3 O24         -0.9290     2.9880     1.7890 o          1 CF1      -0.700500
      4 C21         -2.2990     1.3000     0.8260 ca         1 CF1      -0.152600
      5 C5          -3.5880     0.7950     0.7220 ca         1 CF1      -0.088000
      6 C4          -3.9330    -0.1730    -0.2150 ca         1 CF1       0.076100
      7 O1          -5.2190    -0.5940    -0.2090 os         1 CF1      -0.347100
      8 C2          -5.6100    -1.5510    -1.1690 c3         1 CF1       0.156900
      9 C3          -2.9550    -0.6310    -1.0910 ca         1 CF1      -0.182000
     10 C8          -1.6630    -0.1350    -1.0040 ca         1 CF1      -0.156000
     11 C7          -1.3000     0.8080    -0.0440 ca         1 CF1       0.280000
     12 N1          -0.0150     1.3320     0.0320 nu         1 CF1      -0.976000
     13 C9           1.1640     0.6790    -0.2030 ca         1 CF1       0.368000
     14 C10          2.3530     1.4220    -0.3340 ca         1 CF1       0.062000
     15 CL1          2.2830     3.1480    -0.2150 cl         1 CF1      -0.190000
     16 C11          3.5750     0.8210    -0.5600 ca         1 CF1      -0.078000
     17 C12          3.6690    -0.5580    -0.6780 ca         1 CF1      -0.142000
     18 C15          1.2890    -0.7120    -0.2940 ca         1 CF1      -0.155000
     19 C13          2.5140    -1.3130    -0.5410 ca         1 CF1      -0.155300
     20 C14          2.5540    -2.8080    -0.6250 c3         1 CF1       0.352300
     21 F1           3.7590    -3.2720    -0.9660 f          1 CF1      -0.121667
     22 F3           2.2320    -3.3800     0.5450 f          1 CF1      -0.121667
     23 F2           1.6820    -3.2780    -1.5280 f          1 CF1      -0.121667
     24 H5          -4.3480     1.1700     1.3960 ha         1 CF1       0.146000
     25 H2          -5.4900    -1.1800    -2.1910 h1         1 CF1       0.025700
     26 H2A         -5.0520    -2.4860    -1.0690 h1         1 CF1       0.025700
     27 H2B         -6.6640    -1.7550    -0.9940 h1         1 CF1       0.025700
     28 H3          -3.1720    -1.3630    -1.8580 ha         1 CF1       0.095000
     29 H8          -0.9350    -0.4850    -1.7240 ha         1 CF1       0.103000
     30 HN1         -0.0100     2.1650     0.6430 hn         1 CF1       0.579000
     31 H11          4.4620     1.4320    -0.6590 ha         1 CF1       0.116000
     32 H12          4.6310    -1.0070    -0.8750 ha         1 CF1       0.118000
     33 H15          0.4090    -1.3240    -0.1510 ha         1 CF1       0.138000
@<TRIPOS>BOND
     1     1     2 1   
     2     2     3 1   
     3     2     4 1   
     4     4     5 ar  
     5     4    11 ar  
     6     5     6 ar  
     7     5    24 1   
     8     6     7 1   
     9     6     9 ar  
    10     7     8 1   
    11     8    25 1   
    12     8    26 1   
    13     8    27 1   
    14     9    10 ar  
    15     9    28 1   
    16    10    11 ar  
    17    10    29 1   
    18    11    12 1   
    19    12    13 1   
    20    12    30 1   
    21    13    14 ar  
    22    13    18 ar  
    23    14    15 1   
    24    14    16 ar  
    25    16    17 ar  
    26    16    31 1   
    27    17    19 ar  
    28    17    32 1   
    29    18    19 ar  
    30    18    33 1   
    31    19    20 1   
    32    20    21 1   
    33    20    22 1   
    34    20    23 1   
@<TRIPOS>SUBSTRUCTURE
     1 CF1         1 TEMP              0 ****  ****    0 ROOT
