@<TRIPOS>MOLECULE
CF2
   68    73     1     0     0
SMALL
bcc


@<TRIPOS>ATOM
      1 O6A          9.7210    -1.3330    -1.2470 o          1 CF2      -0.588500
      2 C6A          8.8830    -0.8850    -0.4830 c          1 CF2       0.664000
      3 N1A          9.1990    -0.6460     0.8610 ns         1 CF2      -0.525400
      4 C2A          8.3560    -0.1480     1.8130 cc         1 CF2       0.733800
      5 N2A          8.8650     0.0430     3.0390 nv         1 CF2      -0.933800
      6 N3A          7.1100     0.1740     1.5650 nd         1 CF2      -0.714100
      7 C5AA         7.5260    -0.5370    -0.7470 cc         1 CF2       0.157800
      8 C4AA         6.7580    -0.0400     0.2890 cd         1 CF2       0.120800
      9 N7A          6.7920    -0.6060    -1.9020 nc         1 CF2      -0.600000
     10 C8A          5.6180    -0.1590    -1.5730 cd         1 CF2       0.407400
     11 N9A          5.5340     0.1980    -0.2510 na         1 CF2      -0.221900
     12 C1'A         4.4050     0.7780     0.4730 c5         1 CF2       0.270800
     13 C2'A         4.4920     2.2960     0.5620 c5         1 CF2      -0.163400
     14 C3'A         3.7100     2.7390    -0.6700 c5         1 CF2       0.119100
     15 O3'A         3.1300     4.0090    -0.5950 oh         1 CF2      -0.571800
     16 O4'A         3.2290     0.4840    -0.2250 os         1 CF2      -0.399600
     17 C4'A         2.6160     1.6740    -0.7150 c5         1 CF2       0.102100
     18 C5'A         2.0680     1.4390    -2.1030 c3         1 CF2       0.161400
     19 O1           1.0910     0.4060    -2.1260 os         1 CF2      -0.426900
     20 C5          -0.1710     0.7310    -1.8120 c          1 CF2       0.746100
     21 O2          -0.5450     1.8550    -1.5560 o          1 CF2      -0.560000
     22 N1          -0.9620    -0.3580    -1.8400 ns         1 CF2      -0.573900
     23 C4          -2.3690    -0.2920    -1.5470 c3         1 CF2       0.105000
     24 C1          -2.6350    -0.2390    -0.0410 c3         1 CF2       0.000300
     25 N10         -4.0700    -0.2950     0.2330 na         1 CF2      -0.091100
     26 C9A         -4.7180    -1.5060     0.3230 ca         1 CF2      -0.006600
     27 C5A         -6.1060    -1.5070     0.5730 ca         1 CF2       0.290600
     28 C6          -6.7950    -2.7270     0.6790 ca         1 CF2      -0.098300
     29 C7          -6.1530    -3.9310     0.5420 ca         1 CF2      -0.106300
     30 C7M         -6.8990    -5.2230     0.6690 c3         1 CF2      -0.045800
     31 C8          -4.7590    -3.9250     0.2800 ca         1 CF2      -0.001300
     32 C8M         -4.0290    -5.2190     0.1040 c3         1 CF2      -0.060800
     33 C9          -4.0670    -2.7340     0.1770 ca         1 CF2      -0.185000
     34 N5          -6.8000    -0.3550     0.7110 nc         1 CF2      -0.521000
     35 C4A         -6.1690     0.7610     0.6000 cd         1 CF2       0.279800
     36 C11         -6.9330     2.0220     0.7490 c          1 CF2       0.626000
     37 O4          -8.1200     2.0580     0.9820 o          1 CF2      -0.564500
     38 N3          -6.1630     3.1350     0.6000 ns         1 CF2      -0.634500
     39 C10         -4.7550     0.8740     0.3360 cd         1 CF2       0.093400
     40 N4          -4.1200     2.0010     0.1980 nc         1 CF2      -0.439400
     41 C2          -4.7930     3.1740     0.3280 c          1 CF2       0.873900
     42 O5          -4.2520     4.2560     0.2180 o          1 CF2      -0.571500
     43 HA          10.1510    -0.8630     1.1290 hn         1 CF2       0.322500
     44 HA'1         9.7280    -0.3940     3.3140 hn         1 CF2       0.444800
     45 HA'2         8.2190     0.2570     3.7800 hn         1 CF2       0.444800
     46 HAA          4.7760    -0.0860    -2.2420 h5         1 CF2       0.064100
     47 HAB          4.3910     0.3050     1.4570 h2         1 CF2       0.104700
     48 HAA1         3.9750     2.6370     1.4620 hc         1 CF2       0.082700
     49 HAA2         5.5180     2.6590     0.5990 hc         1 CF2       0.082700
     50 HAC          4.3460     2.6480    -1.5630 h1         1 CF2       0.046700
     51 HAD          3.8160     4.6680    -0.7380 ho         1 CF2       0.416000
     52 HAE          1.8080     1.9720    -0.0340 h1         1 CF2       0.094700
     53 HAB1         1.6710     2.3740    -2.5000 h1         1 CF2       0.076200
     54 HAB2         2.8610     1.1010    -2.7720 h1         1 CF2       0.076200
     55 H1          -0.5500    -1.2590    -2.0210 hn         1 CF2       0.330500
     56 H4'1        -2.8120     0.5830    -2.0230 h1         1 CF2       0.068700
     57 H4'2        -2.8360    -1.1730    -1.9880 h1         1 CF2       0.068700
     58 H1'1        -2.1430    -1.0570     0.4790 h1         1 CF2       0.090200
     59 H1'2        -2.2550     0.6910     0.3710 h1         1 CF2       0.090200
     60 H9          -3.0070    -2.7820    -0.0260 ha         1 CF2       0.144000
     61 H6          -7.8600    -2.6840     0.8710 ha         1 CF2       0.161000
     62 H7M1        -6.7890    -5.8420    -0.2230 hc         1 CF2       0.048033
     63 H7M2        -6.5290    -5.8120     1.5110 hc         1 CF2       0.048033
     64 H7M3        -7.9610    -5.0490     0.8270 hc         1 CF2       0.048033
     65 H8M1        -4.4150    -5.7690    -0.7570 hc         1 CF2       0.052700
     66 H8M2        -2.9640    -5.0610    -0.0490 hc         1 CF2       0.052700
     67 H8M3        -4.1550    -5.8670     0.9730 hc         1 CF2       0.052700
     68 H3          -6.6240     4.0310     0.7030 hn         1 CF2       0.340500
@<TRIPOS>BOND
     1     1     2 2   
     2     2     3 1   
     3     2     7 1   
     4     3     4 1   
     5     3    43 1   
     6     4     5 1   
     7     4     6 2   
     8     5    44 1   
     9     5    45 1   
    10     6     8 1   
    11     7     8 2   
    12     7     9 1   
    13     8    11 1   
    14     9    10 2   
    15    10    11 1   
    16    10    46 1   
    17    11    12 1   
    18    12    13 1   
    19    12    16 1   
    20    12    47 1   
    21    13    14 1   
    22    13    48 1   
    23    13    49 1   
    24    14    15 1   
    25    14    17 1   
    26    14    50 1   
    27    15    51 1   
    28    16    17 1   
    29    17    18 1   
    30    17    52 1   
    31    18    19 1   
    32    18    53 1   
    33    18    54 1   
    34    19    20 1   
    35    20    21 2   
    36    20    22 1   
    37    22    23 1   
    38    22    55 1   
    39    23    24 1   
    40    23    56 1   
    41    23    57 1   
    42    24    25 1   
    43    24    58 1   
    44    24    59 1   
    45    25    26 1   
    46    25    39 1   
    47    26    27 ar  
    48    26    33 ar  
    49    27    28 ar  
    50    27    34 1   
    51    28    29 ar  
    52    28    61 1   
    53    29    30 1   
    54    29    31 ar  
    55    30    62 1   
    56    30    63 1   
    57    30    64 1   
    58    31    32 1   
    59    31    33 ar  
    60    32    65 1   
    61    32    66 1   
    62    32    67 1   
    63    33    60 1   
    64    34    35 2   
    65    35    36 1   
    66    35    39 1   
    67    36    37 2   
    68    36    38 1   
    69    38    41 1   
    70    38    68 1   
    71    39    40 2   
    72    40    41 1   
    73    41    42 2   
@<TRIPOS>SUBSTRUCTURE
     1 CF2         1 TEMP              0 ****  ****    0 ROOT
