@<TRIPOS>MOLECULE
CF2
   68    73     1     0     0
SMALL
No Charge or Current Charge


@<TRIPOS>ATOM
      1 O6A          8.5450    -2.7210     0.2560 o          1 CF2      -0.513000
      2 C6A          7.7330    -1.9320     0.7200 c          1 CF2       0.521500
      3 N1A          7.7110    -1.6110     2.0410 ns         1 CF2      -0.458400
      4 C2A          6.8330    -0.7400     2.5860 cc         1 CF2       0.733800
      5 N2A          6.9440    -0.5410     3.8840 nv         1 CF2      -1.044200
      6 N3A          5.8820    -0.0730     1.9720 nd         1 CF2      -0.714100
      7 C5AA         6.6780    -1.2140    -0.0360 cc         1 CF2       0.092500
      8 C4AA         5.8330    -0.3490     0.6060 cd         1 CF2       0.135400
      9 N7A          6.3840    -1.2730    -1.3790 nc         1 CF2      -0.600000
     10 C8A          5.3550    -0.4410    -1.5500 cd         1 CF2       0.407400
     11 N9A          4.9830     0.1560    -0.3470 na         1 CF2      -0.200500
     12 C1'A         3.9140     1.1260    -0.1390 c5         1 CF2       0.323300
     13 C2'A         4.3570     2.6180    -0.2360 c5         1 CF2      -0.163400
     14 C3'A         3.9410     2.9880    -1.6770 c5         1 CF2       0.142300
     15 O3'A         3.8130     4.4000    -1.8510 oh         1 CF2      -0.694000
     16 O4'A         2.9120     0.9460    -1.1690 os         1 CF2      -0.446000
     17 C4'A         2.5850     2.2420    -1.7230 c5         1 CF2       0.125300
     18 C5'A         1.9520     2.1170    -3.1390 c3         1 CF2       0.184600
     19 O1           0.9240     1.0980    -3.1460 os         1 CF2      -0.450100
     20 C5          -0.2380     1.3360    -2.4770 c          1 CF2       0.630100
     21 O2          -0.5510     2.3790    -1.9270 o          1 CF2      -0.511000
     22 N1          -1.0260     0.2240    -2.5590 ns         1 CF2      -0.506900
     23 C4          -2.3560     0.0930    -1.9550 c3         1 CF2       0.105000
     24 C1          -2.3060     0.0360    -0.4140 c3         1 CF2       0.029600
     25 N10         -3.6440    -0.1810     0.2020 na         1 CF2      -0.019000
     26 C9A         -4.1650    -1.4710     0.4520 ca         1 CF2       0.008000
     27 C5A         -5.3590    -1.6560     1.2030 ca         1 CF2       0.160000
     28 C6          -5.8110    -2.9640     1.4600 ca         1 CF2      -0.015000
     29 C7          -5.1350    -4.0980     0.9780 ca         1 CF2      -0.106300
     30 C7M         -5.6830    -5.4890     1.2880 c3         1 CF2      -0.045800
     31 C8          -3.9710    -3.9230     0.2070 ca         1 CF2      -0.001300
     32 C8M         -3.2090    -5.1200    -0.3540 c3         1 CF2      -0.060800
     33 C9          -3.5010    -2.6230    -0.0480 ca         1 CF2      -0.167000
     34 N5          -6.1630    -0.6260     1.7100 nc         1 CF2      -0.521000
     35 C4A         -5.7240     0.5960     1.3790 cd         1 CF2       0.214500
     36 C11         -6.5280     1.7930     1.8020 c          1 CF2       0.483500
     37 O4          -7.5720     1.7660     2.4390 o          1 CF2      -0.489000
     38 N3          -5.9860     2.9850     1.4030 ns         1 CF2      -0.500500
     39 C10         -4.5100     0.8340     0.6340 cd         1 CF2       0.108000
     40 N4          -4.1250     2.0700     0.3300 nc         1 CF2      -0.439400
     41 C2          -4.8430     3.1910     0.6960 c          1 CF2       0.731400
     42 O5          -4.4840     4.3180     0.4090 o          1 CF2      -0.496000
     43 HA           8.4110    -2.0360     2.6260 hn         1 CF2       0.322500
     44 HA'1         7.2650    -1.3270     4.4350 hn         1 CF2       0.500000
     45 HA'2         6.1640    -0.0310     4.2800 hn         1 CF2       0.500000
     46 HAA          4.8500    -0.2230    -2.4840 h5         1 CF2       0.064100
     47 HAB          3.4920     0.9090     0.8510 h2         1 CF2       0.104700
     48 HAA1         3.8250     3.2220     0.5090 hc         1 CF2       0.082700
     49 HAA2         5.4290     2.7520    -0.0540 hc         1 CF2       0.082700
     50 HAC          4.6410     2.5660    -2.4130 h1         1 CF2       0.046700
     51 HAD          4.7170     4.7870    -1.7720 ho         1 CF2       0.515000
     52 HAE          1.8620     2.7330    -1.0570 h1         1 CF2       0.094700
     53 HAB1         1.5520     3.0910    -3.4510 h1         1 CF2       0.076200
     54 HAB2         2.7450     1.8450    -3.8470 h1         1 CF2       0.076200
     55 H1          -0.6330    -0.5590    -3.0680 hn         1 CF2       0.330500
     56 H4'1        -2.9750     0.9450    -2.2680 h1         1 CF2       0.068700
     57 H4'2        -2.8270    -0.8210    -2.3420 h1         1 CF2       0.068700
     58 H1'1        -1.6140    -0.7480    -0.0870 h1         1 CF2       0.090200
     59 H1'2        -1.8850     0.9760    -0.0370 h1         1 CF2       0.090200
     60 H9          -2.6040    -2.5320    -0.6530 ha         1 CF2       0.126000
     61 H6          -6.7210    -3.0940     2.0410 ha         1 CF2       0.143000
     62 H7M1        -5.9450    -6.0250     0.3680 hc         1 CF2       0.048033
     63 H7M2        -4.9470    -6.0920     1.8320 hc         1 CF2       0.048033
     64 H7M3        -6.5870    -5.4450     1.9070 hc         1 CF2       0.048033
     65 H8M1        -3.8460    -5.7180    -1.0170 hc         1 CF2       0.052700
     66 H8M2        -2.3320    -4.8130    -0.9360 hc         1 CF2       0.052700
     67 H8M3        -2.8530    -5.7730     0.4520 hc         1 CF2       0.052700
     68 H3          -6.4920     3.8170     1.6610 hn         1 CF2       0.340500
@<TRIPOS>BOND
     1     1     2 2   
     2     2     3 1   
     3     2     7 1   
     4     3     4 1   
     5     3    43 1   
     6     4     5 1   
     7     4     6 2   
     8     5    44 1   
     9     5    45 1   
    10     6     8 1   
    11     7     8 2   
    12     7     9 1   
    13     8    11 1   
    14     9    10 2   
    15    10    11 1   
    16    10    46 1   
    17    11    12 1   
    18    12    13 1   
    19    12    16 1   
    20    12    47 1   
    21    13    14 1   
    22    13    48 1   
    23    13    49 1   
    24    14    15 1   
    25    14    17 1   
    26    14    50 1   
    27    15    51 1   
    28    16    17 1   
    29    17    18 1   
    30    17    52 1   
    31    18    19 1   
    32    18    53 1   
    33    18    54 1   
    34    19    20 1   
    35    20    21 2   
    36    20    22 1   
    37    22    23 1   
    38    22    55 1   
    39    23    24 1   
    40    23    56 1   
    41    23    57 1   
    42    24    25 1   
    43    24    58 1   
    44    24    59 1   
    45    25    26 1   
    46    25    39 1   
    47    26    27 ar  
    48    26    33 ar  
    49    27    28 ar  
    50    27    34 1   
    51    28    29 ar  
    52    28    61 1   
    53    29    30 1   
    54    29    31 ar  
    55    30    62 1   
    56    30    63 1   
    57    30    64 1   
    58    31    32 1   
    59    31    33 ar  
    60    32    65 1   
    61    32    66 1   
    62    32    67 1   
    63    33    60 1   
    64    34    35 2   
    65    35    36 1   
    66    35    39 1   
    67    36    37 2   
    68    36    38 1   
    69    38    41 1   
    70    38    68 1   
    71    39    40 2   
    72    40    41 1   
    73    41    42 2   
@<TRIPOS>SUBSTRUCTURE
     1 CF2         1 TEMP              0 ****  ****    0 ROOT
