@<TRIPOS>MOLECULE
CF3
   39    39     1     0     0
SMALL
abcg2


@<TRIPOS>ATOM
      1 C4          -6.3070    -1.1550     0.0460 ca         1 CF3      -0.151500
      2 C2          -7.6650    -1.4420    -0.0190 ca         1 CF3      -0.083000
      3 C1          -8.6070    -0.4410    -0.2000 ca         1 CF3      -0.137000
      4 C3          -8.1750     0.8740    -0.3170 ca         1 CF3      -0.083000
      5 C5          -6.8260     1.1770    -0.2530 ca         1 CF3      -0.151500
      6 C14         -5.8740     0.1680    -0.0710 ca         1 CF3      -0.019000
      7 N1          -4.5370     0.5700    -0.0150 ns         1 CF3      -0.150000
      8 C12         -3.4090    -0.1790     0.1110 c          1 CF3       0.607100
      9 O1          -3.4090    -1.3950     0.1690 o          1 CF3      -0.578100
     10 C10         -2.1420     0.6470     0.1920 c3         1 CF3      -0.159400
     11 C8          -0.8710    -0.1690     0.0220 c3         1 CF3      -0.065400
     12 C6           0.3820     0.6890     0.1470 c3         1 CF3      -0.076400
     13 C7           1.6600    -0.1210    -0.0190 c3         1 CF3      -0.076400
     14 C9           2.9190     0.7210     0.1350 c3         1 CF3      -0.066400
     15 C11          4.1750    -0.1180    -0.0410 c3         1 CF3      -0.176400
     16 C13          5.4470     0.6450     0.1380 c          1 CF3       0.522100
     17 O2           5.5360     1.7780     0.5240 o          1 CF3      -0.445100
     18 C15          6.7450    -0.1040    -0.2280 c3         1 CF3       0.193000
     19 F3           6.8230    -0.2470    -1.5550 f          1 CF3      -0.104000
     20 F1           6.7700    -1.3240     0.3130 f          1 CF3      -0.104000
     21 F2           7.8220     0.5520     0.1800 f          1 CF3      -0.104000
     22 H4          -5.6020    -1.9560     0.1860 ha         1 CF3       0.126500
     23 H2          -7.9820    -2.4730     0.0750 ha         1 CF3       0.113000
     24 H1          -9.6620    -0.6790    -0.2480 ha         1 CF3       0.115000
     25 H3          -8.8900     1.6740    -0.4580 ha         1 CF3       0.113000
     26 H5          -6.5030     2.2080    -0.3480 ha         1 CF3       0.126500
     27 HN1         -4.3960     1.5680    -0.0720 hn         1 CF3       0.147000
     28 H101        -2.1370     1.1510     1.1650 hc         1 CF3       0.058200
     29 H102        -2.1820     1.4480    -0.5530 hc         1 CF3       0.058200
     30 H81         -0.8770    -0.6640    -0.9540 hc         1 CF3       0.057200
     31 H82         -0.8390    -0.9640     0.7710 hc         1 CF3       0.057200
     32 H61          0.3890     1.1830     1.1250 hc         1 CF3       0.039200
     33 H62          0.3570     1.4900    -0.5990 hc         1 CF3       0.039200
     34 H71          1.6590    -0.6040    -1.0030 hc         1 CF3       0.043200
     35 H72          1.6730    -0.9320     0.7170 hc         1 CF3       0.043200
     36 H91          2.9230     1.1920     1.1220 hc         1 CF3       0.054200
     37 H92          2.9120     1.5330    -0.5980 hc         1 CF3       0.054200
     38 H111         4.1860    -0.6020    -1.0240 hc         1 CF3       0.081700
     39 H112         4.1840    -0.9450     0.6800 hc         1 CF3       0.081700
@<TRIPOS>BOND
     1     1     2 ar  
     2     1     6 ar  
     3     1    22 1   
     4     2     3 ar  
     5     2    23 1   
     6     3     4 ar  
     7     3    24 1   
     8     4     5 ar  
     9     4    25 1   
    10     5     6 ar  
    11     5    26 1   
    12     6     7 1   
    13     7     8 1   
    14     7    27 1   
    15     8     9 2   
    16     8    10 1   
    17    10    11 1   
    18    10    28 1   
    19    10    29 1   
    20    11    12 1   
    21    11    30 1   
    22    11    31 1   
    23    12    13 1   
    24    12    32 1   
    25    12    33 1   
    26    13    14 1   
    27    13    34 1   
    28    13    35 1   
    29    14    15 1   
    30    14    36 1   
    31    14    37 1   
    32    15    16 1   
    33    15    38 1   
    34    15    39 1   
    35    16    17 2   
    36    16    18 1   
    37    18    19 1   
    38    18    20 1   
    39    18    21 1   
@<TRIPOS>SUBSTRUCTURE
     1 CF3         1 TEMP              0 ****  ****    0 ROOT
