@<TRIPOS>MOLECULE
CF3
   39    39     1     0     0
SMALL
No Charge or Current Charge


@<TRIPOS>ATOM
      1 C4          -6.3140    -1.1100     0.2220 ca         1 CF3      -0.151500
      2 C2          -7.6370    -1.3280    -0.2010 ca         1 CF3      -0.083000
      3 C1          -8.3470    -0.3070    -0.8520 ca         1 CF3      -0.137000
      4 C3          -7.7330     0.9330    -1.0840 ca         1 CF3      -0.083000
      5 C5          -6.4110     1.1520    -0.6610 ca         1 CF3      -0.151500
      6 C14         -5.6880     0.1380    -0.0030 ca         1 CF3      -0.019000
      7 N1          -4.3540     0.4320     0.3920 ns         1 CF3      -0.150000
      8 C12         -3.4080    -0.2870     1.1130 c          1 CF3       0.607100
      9 O1          -3.6040    -1.3930     1.6050 o          1 CF3      -0.578100
     10 C10         -2.0680     0.4410     1.2940 c3         1 CF3      -0.159400
     11 C8          -0.9550    -0.1840     0.4180 c3         1 CF3      -0.065400
     12 C6           0.4060     0.5300     0.5750 c3         1 CF3      -0.076400
     13 C7           1.5180    -0.0920    -0.2980 c3         1 CF3      -0.076400
     14 C9           2.8780     0.6230    -0.1410 c3         1 CF3      -0.066400
     15 C11          3.9910    -0.0030    -1.0170 c3         1 CF3      -0.176400
     16 C13          5.3340     0.7270    -0.8370 c          1 CF3       0.522100
     17 O2           5.5550     1.7810    -1.4260 o          1 CF3      -0.445100
     18 C15          6.3740     0.0580     0.1010 c3         1 CF3       0.193000
     19 F3           6.8300    -1.1050    -0.4210 f          1 CF3      -0.104000
     20 F1           5.8430    -0.2240     1.3150 f          1 CF3      -0.104000
     21 F2           7.4520     0.8520     0.3120 f          1 CF3      -0.104000
     22 H4          -5.7930    -1.9240     0.7160 ha         1 CF3       0.126500
     23 H2          -8.1110    -2.2910    -0.0240 ha         1 CF3       0.113000
     24 H1          -9.3710    -0.4780    -1.1790 ha         1 CF3       0.115000
     25 H3          -8.2810     1.7260    -1.5900 ha         1 CF3       0.113000
     26 H5          -5.9460     2.1180    -0.8470 ha         1 CF3       0.126500
     27 HN1         -4.0300     1.3390     0.0810 hn         1 CF3       0.147000
     28 H101        -1.7670     0.3630     2.3450 hc         1 CF3       0.058200
     29 H102        -2.1750     1.4970     1.0170 hc         1 CF3       0.058200
     30 H81         -1.2620    -0.1490    -0.6350 hc         1 CF3       0.057200
     31 H82         -0.8380    -1.2430     0.6820 hc         1 CF3       0.057200
     32 H61          0.7120     0.4950     1.6280 hc         1 CF3       0.039200
     33 H62          0.2900     1.5890     0.3100 hc         1 CF3       0.039200
     34 H71          1.2120    -0.0570    -1.3510 hc         1 CF3       0.043200
     35 H72          1.6340    -1.1500    -0.0320 hc         1 CF3       0.043200
     36 H91          3.1810     0.5900     0.9130 hc         1 CF3       0.054200
     37 H92          2.7610     1.6820    -0.4060 hc         1 CF3       0.054200
     38 H111         3.6910     0.0630    -2.0700 hc         1 CF3       0.081700
     39 H112         4.1030    -1.0520    -0.7200 hc         1 CF3       0.081700
@<TRIPOS>BOND
     1     1     2 ar  
     2     1     6 ar  
     3     1    22 1   
     4     2     3 ar  
     5     2    23 1   
     6     3     4 ar  
     7     3    24 1   
     8     4     5 ar  
     9     4    25 1   
    10     5     6 ar  
    11     5    26 1   
    12     6     7 1   
    13     7     8 1   
    14     7    27 1   
    15     8     9 2   
    16     8    10 1   
    17    10    11 1   
    18    10    28 1   
    19    10    29 1   
    20    11    12 1   
    21    11    30 1   
    22    11    31 1   
    23    12    13 1   
    24    12    32 1   
    25    12    33 1   
    26    13    14 1   
    27    13    34 1   
    28    13    35 1   
    29    14    15 1   
    30    14    36 1   
    31    14    37 1   
    32    15    16 1   
    33    15    38 1   
    34    15    39 1   
    35    16    17 2   
    36    16    18 1   
    37    18    19 1   
    38    18    20 1   
    39    18    21 1   
@<TRIPOS>SUBSTRUCTURE
     1 CF3         1 TEMP              0 ****  ****    0 ROOT
