@<TRIPOS>MOLECULE
CF4
   44    46     1     0     0
SMALL
abcg2


@<TRIPOS>ATOM
      1 O4          -0.0160    19.4400    -3.9980 o          1 CF4      -0.508000
      2 C4           0.1450    20.5400    -3.5180 c          1 CF4       0.485500
      3 N3          -0.2540    21.6890    -4.1290 ns         1 CF4      -0.500500
      4 C2          -0.0980    22.9900    -3.6430 c          1 CF4       0.732400
      5 O2          -0.5040    23.9160    -4.3180 o          1 CF4      -0.516000
      6 N1           0.5010    23.1700    -2.4390 nc         1 CF4      -0.449400
      7 C4A          0.7940    20.7710    -2.2070 cd         1 CF4       0.203500
      8 C10          0.9090    22.1360    -1.7580 cd         1 CF4       0.113000
      9 N5           1.2200    19.7510    -1.5450 nc         1 CF4      -0.526000
     10 C5A          1.8190    19.9600    -0.3520 ca         1 CF4       0.151000
     11 C6           2.2970    18.8510     0.3660 ca         1 CF4      -0.024000
     12 C7           2.9240    18.9940     1.5770 ca         1 CF4      -0.113300
     13 C7M          3.4300    17.8020     2.3290 c3         1 CF4      -0.040800
     14 C8           3.0860    20.3030     2.1030 ca         1 CF4      -0.002300
     15 C8M          3.7800    20.4980     3.4130 c3         1 CF4      -0.061800
     16 C9           2.6170    21.4030     1.4110 ca         1 CF4      -0.152000
     17 C9A          1.9720    21.2580     0.1780 ca         1 CF4       0.016000
     18 N10          1.4820    22.3220    -0.5420 na         1 CF4      -0.003000
     19 C1           1.6240    23.6920    -0.0420 c3         1 CF4       0.052600
     20 C12          2.9610    24.3040    -0.4360 c3         1 CF4      -0.088400
     21 C3           3.0660    25.7530     0.0180 c3         1 CF4      -0.115400
     22 C11          4.3920    26.3870    -0.3990 c3         1 CF4       0.118000
     23 N2           4.5450    27.7690    -0.0290 ns         1 CF4      -0.546900
     24 C5           4.7740    28.1560     1.3030 c          1 CF4       0.723000
     25 O1           4.5700    29.3620     1.5640 o          1 CF4      -0.747500
     26 O3           5.1910    27.2790     2.0900 o          1 CF4      -0.747500
     27 H3          -0.7130    21.5990    -5.0280 hn         1 CF4       0.332500
     28 H6           2.1540    17.8720    -0.0730 ha         1 CF4       0.134000
     29 H7M1         3.2250    16.8810     1.7850 hc         1 CF4       0.042700
     30 H7M2         4.5080    17.8600     2.4930 hc         1 CF4       0.042700
     31 H7M3         2.9620    17.7200     3.3120 hc         1 CF4       0.042700
     32 H8M1         4.8120    20.1450     3.3640 hc         1 CF4       0.053367
     33 H8M2         3.7990    21.5460     3.7040 hc         1 CF4       0.053367
     34 H8M3         3.2910    19.9330     4.2090 hc         1 CF4       0.053367
     35 H9           2.7710    22.3800     1.8450 ha         1 CF4       0.147000
     36 H1'1         0.8060    24.2710    -0.4610 h1         1 CF4       0.078700
     37 H1'2         1.4860    23.6800     1.0380 h1         1 CF4       0.078700
     38 H2'1         3.7830    23.7220    -0.0080 hc         1 CF4       0.045700
     39 H2'2         3.0700    24.2470    -1.5220 hc         1 CF4       0.045700
     40 H3'1         2.2390    26.3300    -0.4100 hc         1 CF4       0.047700
     41 H3'2         2.9690    25.8160     1.1050 hc         1 CF4       0.047700
     42 H4'1         5.2160    25.8150     0.0320 h1         1 CF4       0.024200
     43 H4'2         4.4970    26.3080    -1.4850 h1         1 CF4       0.024200
     44 H1           3.9780    28.4130    -0.5570 hn         1 CF4       0.250500
@<TRIPOS>BOND
     1     1     2 2   
     2     2     3 1   
     3     2     7 1   
     4     3     4 1   
     5     3    27 1   
     6     4     5 2   
     7     4     6 1   
     8     6     8 2   
     9     7     8 1   
    10     7     9 2   
    11     8    18 1   
    12     9    10 1   
    13    10    11 ar  
    14    10    17 ar  
    15    11    12 ar  
    16    11    28 1   
    17    12    13 1   
    18    12    14 ar  
    19    13    29 1   
    20    13    30 1   
    21    13    31 1   
    22    14    15 1   
    23    14    16 ar  
    24    15    32 1   
    25    15    33 1   
    26    15    34 1   
    27    16    17 ar  
    28    16    35 1   
    29    17    18 1   
    30    18    19 1   
    31    19    20 1   
    32    19    36 1   
    33    19    37 1   
    34    20    21 1   
    35    20    38 1   
    36    20    39 1   
    37    21    22 1   
    38    21    40 1   
    39    21    41 1   
    40    22    23 1   
    41    22    42 1   
    42    22    43 1   
    43    23    24 1   
    44    23    44 1   
    45    24    25 1   
    46    24    26 1   
@<TRIPOS>SUBSTRUCTURE
     1 CF4         1 TEMP              0 ****  ****    0 ROOT
