@<TRIPOS>MOLECULE
CF4
   44    46     1     0     0
SMALL
No Charge or Current Charge


@<TRIPOS>ATOM
      1 O4          -0.2610    19.2920    -4.0750 o          1 CF4      -0.508000
      2 C4           0.0030    20.3800    -3.5800 c          1 CF4       0.485500
      3 N3          -0.3160    21.5370    -4.2360 ns         1 CF4      -0.500500
      4 C2          -0.0960    22.8160    -3.8310 c          1 CF4       0.732400
      5 O2          -0.4370    23.7560    -4.5270 o          1 CF4      -0.516000
      6 N1           0.5220    22.9880    -2.6100 nc         1 CF4      -0.449400
      7 C4A          0.6810    20.6050    -2.2580 cd         1 CF4       0.203500
      8 C10          0.9030    21.9710    -1.8420 cd         1 CF4       0.113000
      9 N5           1.0440    19.5400    -1.5300 nc         1 CF4      -0.526000
     10 C5A          1.7120    19.8830    -0.3470 ca         1 CF4       0.151000
     11 C6           2.1700    18.8000     0.4280 ca         1 CF4      -0.024000
     12 C7           2.8900    18.9850     1.6200 ca         1 CF4      -0.113300
     13 C7M          3.3620    17.7660     2.4100 c3         1 CF4      -0.040800
     14 C8           3.1700    20.2940     2.0540 ca         1 CF4      -0.002300
     15 C8M          3.9620    20.5480     3.3330 c3         1 CF4      -0.061800
     16 C9           2.7120    21.3850     1.2950 ca         1 CF4      -0.152000
     17 C9A          1.9660    21.2100     0.0980 ca         1 CF4       0.016000
     18 N10          1.4970    22.3320    -0.6240 na         1 CF4      -0.003000
     19 C1           1.6080    23.7230    -0.1020 c3         1 CF4       0.052600
     20 C12          2.9440    24.4080    -0.4720 c3         1 CF4      -0.088400
     21 C3           3.0620    25.8400     0.0930 c3         1 CF4      -0.115400
     22 C11          4.3940    26.5230    -0.2810 c3         1 CF4       0.118000
     23 N2           4.4820    27.8920     0.2300 ns         1 CF4      -0.546900
     24 C5           4.8190    28.2500     1.5050 c          1 CF4       0.723000
     25 O1           4.8170    29.4400     1.7470 o          1 CF4      -0.747500
     26 O3           5.1120    27.3890     2.3120 o          1 CF4      -0.747500
     27 H3          -0.7710    21.4370    -5.1290 hn         1 CF4       0.332500
     28 H6           1.9650    17.7900     0.0820 ha         1 CF4       0.134000
     29 H7M1         3.0500    16.8270     1.9380 hc         1 CF4       0.042700
     30 H7M2         4.4550    17.7440     2.4870 hc         1 CF4       0.042700
     31 H7M3         2.9510    17.7710     3.4270 hc         1 CF4       0.042700
     32 H8M1         4.9600    20.0970     3.2760 hc         1 CF4       0.053367
     33 H8M2         4.1000    21.6190     3.5260 hc         1 CF4       0.053367
     34 H8M3         3.4500    20.1240     4.2050 hc         1 CF4       0.053367
     35 H9           2.9560    22.3770     1.6610 ha         1 CF4       0.147000
     36 H1'1         0.7810    24.3240    -0.5000 h1         1 CF4       0.078700
     37 H1'2         1.4690    23.7220     0.9860 h1         1 CF4       0.078700
     38 H2'1         3.7810    23.8040    -0.1010 hc         1 CF4       0.045700
     39 H2'2         3.0370    24.4420    -1.5650 hc         1 CF4       0.045700
     40 H3'1         2.2290    26.4460    -0.2840 hc         1 CF4       0.047700
     41 H3'2         2.9660    25.8050     1.1850 hc         1 CF4       0.047700
     42 H4'1         5.2370    25.9360     0.1070 h1         1 CF4       0.024200
     43 H4'2         4.4860    26.5620    -1.3740 h1         1 CF4       0.024200
     44 H1           4.2570    28.6530    -0.3950 hn         1 CF4       0.250500
@<TRIPOS>BOND
     1     1     2 2   
     2     2     3 1   
     3     2     7 1   
     4     3     4 1   
     5     3    27 1   
     6     4     5 2   
     7     4     6 1   
     8     6     8 2   
     9     7     8 1   
    10     7     9 2   
    11     8    18 1   
    12     9    10 1   
    13    10    11 ar  
    14    10    17 ar  
    15    11    12 ar  
    16    11    28 1   
    17    12    13 1   
    18    12    14 ar  
    19    13    29 1   
    20    13    30 1   
    21    13    31 1   
    22    14    15 1   
    23    14    16 ar  
    24    15    32 1   
    25    15    33 1   
    26    15    34 1   
    27    16    17 ar  
    28    16    35 1   
    29    17    18 1   
    30    18    19 1   
    31    19    20 1   
    32    19    36 1   
    33    19    37 1   
    34    20    21 1   
    35    20    38 1   
    36    20    39 1   
    37    21    22 1   
    38    21    40 1   
    39    21    41 1   
    40    22    23 1   
    41    22    42 1   
    42    22    43 1   
    43    23    24 1   
    44    23    44 1   
    45    24    25 1   
    46    24    26 1   
@<TRIPOS>SUBSTRUCTURE
     1 CF4         1 TEMP              0 ****  ****    0 ROOT
