@<TRIPOS>MOLECULE
CF4
   44    46     1     0     0
SMALL
bcc


@<TRIPOS>ATOM
      1 N4          -0.0160    19.4400    -3.9980 o          1 CF4      -0.308000
      2 N4           0.1450    20.5400    -3.5180 c          1 CF4       0.407700
      3 N3          -0.2540    21.6890    -4.1290 na         1 CF4      -0.455900
      4 N2          -0.0980    22.9900    -3.6430 c          1 CF4       0.605100
      5 N2          -0.5040    23.9160    -4.3180 o          1 CF4      -0.316000
      6 N1           0.5010    23.1700    -2.4390 n2         1 CF4      -0.662500
      7 N4A          0.7940    20.7710    -2.2070 cc         1 CF4       0.020800
      8 N10          0.9090    22.1360    -1.7580 cc         1 CF4       0.361100
      9 N5           1.2200    19.7510    -1.5450 n2         1 CF4      -0.339600
     10 N5A          1.8190    19.9600    -0.3520 ca         1 CF4       0.057800
     11 N6           2.2970    18.8510     0.3660 ca         1 CF4      -0.042000
     12 N7           2.9240    18.9940     1.5770 ca         1 CF4       0.012500
     13 N7M          3.4300    17.8020     2.3290 c3         1 CF4      -0.284500
     14 N8           3.0860    20.3030     2.1030 ca         1 CF4       0.123500
     15 N8M          3.7800    20.4980     3.4130 c3         1 CF4      -0.305500
     16 N9           2.6170    21.4030     1.4110 ca         1 CF4      -0.170000
     17 N9A          1.9720    21.2580     0.1780 cz         1 CF4       0.091000
     18 N10          1.4820    22.3220    -0.5420 na         1 CF4      -0.024500
     19 N1           1.6240    23.6920    -0.0420 c3         1 CF4      -0.154500
     20 N12          2.9610    24.3040    -0.4360 c3         1 CF4      -0.167000
     21 N3           3.0660    25.7530     0.0180 c3         1 CF4      -0.194000
     22 N11          4.3920    26.3870    -0.3990 c3         1 CF4      -0.028200
     23 N2           4.5450    27.7690    -0.0290 n7         1 CF4      -0.402000
     24 N5           4.7740    28.1560     1.3030 c          1 CF4       0.435700
     25 N1           4.5700    29.3620     1.5640 o          1 CF4      -0.587500
     26 N3           5.1910    27.2790     2.0900 o          1 CF4      -0.587500
     27 N3          -0.7130    21.5990    -5.0280 hn         1 CF4       0.222500
     28 N6           2.1540    17.8720    -0.0730 hn         1 CF4       0.152000
     29 N7M1         3.2250    16.8810     1.7850 hn         1 CF4       0.082000
     30 N7M2         4.5080    17.8600     2.4930 hn         1 CF4       0.082000
     31 N7M3         2.9620    17.7200     3.3120 hn         1 CF4       0.082000
     32 N8M1         4.8120    20.1450     3.3640 hn         1 CF4       0.092667
     33 N8M2         3.7990    21.5460     3.7040 hn         1 CF4       0.092667
     34 N8M3         3.2910    19.9330     4.2090 hn         1 CF4       0.092667
     35 N9           2.7710    22.3800     1.8450 hn         1 CF4       0.165000
     36 N1'1         0.8060    24.2710    -0.4610 hn         1 CF4       0.118000
     37 N1'2         1.4860    23.6800     1.0380 hn         1 CF4       0.118000
     38 N2'1         3.7830    23.7220    -0.0080 hn         1 CF4       0.085000
     39 N2'2         3.0700    24.2470    -1.5220 hn         1 CF4       0.085000
     40 N3'1         2.2390    26.3300    -0.4100 hn         1 CF4       0.087000
     41 N3'2         2.9690    25.8160     1.1050 hn         1 CF4       0.087000
     42 N4'1         5.2160    25.8150     0.0320 hn         1 CF4       0.063500
     43 N4'2         4.4970    26.3080    -1.4850 hn         1 CF4       0.063500
     44 N1           3.9780    28.4130    -0.5570 hn         1 CF4       0.140500
@<TRIPOS>BOND
     1     1     2 2   
     2     2     3 1   
     3     2     7 1   
     4     3     4 1   
     5     3    27 1   
     6     4     5 2   
     7     4     6 1   
     8     6     8 2   
     9     7     8 1   
    10     7     9 2   
    11     8    18 1   
    12     9    10 1   
    13    10    11 ar  
    14    10    17 2   
    15    11    12 ar  
    16    11    28 1   
    17    12    13 1   
    18    12    14 ar  
    19    13    29 1   
    20    13    30 1   
    21    13    31 1   
    22    14    15 1   
    23    14    16 ar  
    24    15    32 1   
    25    15    33 1   
    26    15    34 1   
    27    16    17 1   
    28    16    35 1   
    29    17    18 1   
    30    18    19 1   
    31    19    20 1   
    32    19    36 1   
    33    19    37 1   
    34    20    21 1   
    35    20    38 1   
    36    20    39 1   
    37    21    22 1   
    38    21    40 1   
    39    21    41 1   
    40    22    23 1   
    41    22    42 1   
    42    22    43 1   
    43    23    24 1   
    44    23    44 1   
    45    24    25 1   
    46    24    26 1   
@<TRIPOS>SUBSTRUCTURE
     1 CF4         1 TEMP              0 ****  ****    0 ROOT
