@<TRIPOS>MOLECULE
CF6
  118   125     1     0     0
SMALL
abcg2


@<TRIPOS>ATOM
      1 CL1          8.4660    -4.2050    -5.0840 cl         1 CF6      -0.199500
      2 C45          8.7520    -3.0380    -3.8380 ca         1 CF6       0.131000
      3 C44          9.3040    -3.4470    -2.6350 ca         1 CF6      -0.113750
      4 C43          9.5170    -2.5080    -1.6390 ca         1 CF6      -0.068250
      5 C46          8.4210    -1.7080    -4.0630 ca         1 CF6      -0.113750
      6 C47          8.6550    -0.7780    -3.0650 ca         1 CF6      -0.068250
      7 C42          9.1970    -1.1680    -1.8420 ca         1 CF6      -0.138400
      8 C41          9.4670    -0.1610    -0.7890 ce         1 CF6       0.551000
      9 C4           9.3380    -0.6050     0.6120 cc         1 CF6      -0.210400
     10 C2           8.2450    -1.3670     1.1510 cc         1 CF6      -0.065800
     11 C3           7.0510    -1.8080     0.3610 c3         1 CF6      -0.036800
     12 N9           9.8310     0.9970    -1.1730 n2         1 CF6      -0.557400
     13 C9          10.1260     2.0530    -0.2160 c3         1 CF6       0.106700
     14 C8          11.3250     1.6680     0.5810 cc         1 CF6       0.381300
     15 N2          12.4820     2.2470     0.6080 nd         1 CF6      -0.327500
     16 N1          13.2920     1.5250     1.4280 nd         1 CF6      -0.347000
     17 C6          12.6210     0.5090     1.8840 cc         1 CF6       0.408800
     18 C7          13.1300    -0.5370     2.8000 c3         1 CF6      -0.129900
     19 N           11.3530     0.5510     1.3710 na         1 CF6      -0.257300
     20 C5          10.2700    -0.2970     1.5630 cd         1 CF6      -0.117700
     21 S            9.8570    -0.9220     3.1040 ss         1 CF6       0.241000
     22 C1           8.4020    -1.6150     2.4850 cd         1 CF6      -0.206300
     23 C            7.5320    -2.4010     3.4050 c3         1 CF6      -0.026800
     24 C10          8.9330     2.4680     0.6680 c3         1 CF6      -0.174900
     25 C11          7.7000     2.6420    -0.1950 c          1 CF6       0.604100
     26 O            7.6750     3.4600    -1.1040 o          1 CF6      -0.588600
     27 N3           6.6840     1.8160     0.1010 ns         1 CF6      -0.509400
     28 C12          5.4200     1.7710    -0.6010 c3         1 CF6       0.100000
     29 C13          4.2330     2.0650     0.3050 c3         1 CF6      -0.096400
     30 C14          2.9150     1.9650    -0.4510 c3         1 CF6      -0.073400
     31 C15          1.6940     2.2060     0.4270 c3         1 CF6      -0.073900
     32 C16          0.3830     2.1070    -0.3430 c3         1 CF6      -0.074400
     33 C17         -0.8470     2.3300     0.5270 c3         1 CF6      -0.074400
     34 C18         -2.1540     2.2290    -0.2480 c3         1 CF6      -0.073900
     35 C19         -3.3840     2.4570     0.6200 c3         1 CF6      -0.073400
     36 C20         -4.6870     2.3530    -0.1610 c3         1 CF6      -0.096400
     37 C21         -5.9000     2.6070     0.7190 c3         1 CF6       0.100000
     38 N4          -7.1260     2.4670    -0.0400 ns         1 CF6      -0.509400
     39 C22         -8.3030     2.9760     0.3510 c          1 CF6       0.604100
     40 O1          -8.4480     3.6160     1.3820 o          1 CF6      -0.588600
     41 C23         -9.4680     2.6750    -0.5680 c3         1 CF6      -0.174900
     42 C24        -10.5740     1.9430     0.2190 c3         1 CF6       0.106700
     43 C34        -11.6100     1.3380    -0.6640 cc         1 CF6       0.381300
     44 N8         -12.8670     1.6350    -0.7370 nd         1 CF6      -0.327500
     45 N7         -13.4470     0.7850    -1.6260 nd         1 CF6      -0.347000
     46 C32        -12.5380    -0.0270    -2.0780 cc         1 CF6       0.408800
     47 C33        -12.7500    -1.1200    -3.0540 c3         1 CF6      -0.129900
     48 N6         -11.3390     0.2820    -1.4930 na         1 CF6      -0.257300
     49 C27        -10.0820    -0.2840    -1.6550 cc         1 CF6      -0.117700
     50 C26         -9.1460    -0.4220    -0.6680 cd         1 CF6      -0.210400
     51 C30         -7.8910    -0.9080    -1.1780 cd         1 CF6      -0.065800
     52 C31         -6.6650    -1.1170    -0.3420 c3         1 CF6      -0.036800
     53 C28         -7.9350    -1.1280    -2.5240 cc         1 CF6      -0.206300
     54 C29         -6.8810    -1.6620    -3.4340 c3         1 CF6      -0.026800
     55 S1          -9.4780    -0.7340    -3.1930 ss         1 CF6       0.241000
     56 C25         -9.4280    -0.0790     0.7380 cf         1 CF6       0.551000
     57 N5         -10.0820     0.9340     1.1440 n2         1 CF6      -0.557400
     58 C35         -8.9410    -1.0140     1.7800 ca         1 CF6      -0.138400
     59 C40         -8.4690    -0.5160     2.9910 ca         1 CF6      -0.068250
     60 C39         -8.0300    -1.3740     3.9850 ca         1 CF6      -0.113750
     61 C38         -8.0840    -2.7430     3.7650 ca         1 CF6       0.131000
     62 CL          -7.5420    -3.8240     5.0040 cl         1 CF6      -0.199500
     63 C37         -8.5600    -3.2620     2.5710 ca         1 CF6      -0.113750
     64 C36         -8.9790    -2.3910     1.5790 ca         1 CF6      -0.068250
     65 H1           9.5640    -4.4840    -2.4700 ha         1 CF6       0.132500
     66 H2           9.9470    -2.8320    -0.6990 ha         1 CF6       0.132250
     67 H3           7.9840    -1.4060    -5.0040 ha         1 CF6       0.132500
     68 H4           8.3980     0.2590    -3.2330 ha         1 CF6       0.132250
     69 H5           6.8520    -1.1400    -0.4740 hc         1 CF6       0.051700
     70 H6           7.1810    -2.8080    -0.0540 hc         1 CF6       0.051700
     71 H7           6.1560    -1.8280     0.9810 hc         1 CF6       0.051700
     72 H8          10.4170     2.9280    -0.7970 h1         1 CF6       0.126700
     73 H9          12.7210    -0.4290     3.8060 hc         1 CF6       0.065033
     74 H10         12.8890    -1.5370     2.4420 hc         1 CF6       0.065033
     75 H11         14.2120    -0.4480     2.8710 hc         1 CF6       0.065033
     76 H12          7.9870    -3.3600     3.6550 hc         1 CF6       0.053033
     77 H13          7.3450    -1.8710     4.3390 hc         1 CF6       0.053033
     78 H14          6.5690    -2.6070     2.9420 hc         1 CF6       0.053033
     79 H15          8.7600     1.7650     1.4800 hc         1 CF6       0.071450
     80 H16          9.1790     3.4280     1.1270 hc         1 CF6       0.071450
     81 H17          6.7910     1.2000     0.8910 hn         1 CF6       0.311000
     82 H18          5.4610     2.4900    -1.4180 h1         1 CF6       0.054950
     83 H19          5.3000     0.7830    -1.0560 h1         1 CF6       0.054950
     84 H20          4.2290     1.3590     1.1430 hc         1 CF6       0.042700
     85 H21          4.3440     3.0640     0.7380 hc         1 CF6       0.042700
     86 H22          2.9170     2.6850    -1.2770 hc         1 CF6       0.041950
     87 H23          2.8380     0.9750    -0.9130 hc         1 CF6       0.041950
     88 H24          1.6900     1.4810     1.2480 hc         1 CF6       0.037950
     89 H25          1.7680     3.1940     0.8940 hc         1 CF6       0.037950
     90 H26          0.3870     2.8370    -1.1590 hc         1 CF6       0.038450
     91 H27          0.3180     1.1220    -0.8190 hc         1 CF6       0.038450
     92 H28         -0.8520     1.5990     1.3440 hc         1 CF6       0.038450
     93 H29         -0.7840     3.3140     1.0040 hc         1 CF6       0.038450
     94 H30         -2.1480     2.9570    -1.0670 hc         1 CF6       0.037950
     95 H31         -2.2200     1.2420    -0.7210 hc         1 CF6       0.037950
     96 H32         -3.3920     1.7300     1.4390 hc         1 CF6       0.041950
     97 H33         -3.3210     3.4440     1.0900 hc         1 CF6       0.041950
     98 H34         -4.6840     3.0690    -0.9880 hc         1 CF6       0.042700
     99 H35         -4.7580     1.3570    -0.6130 hc         1 CF6       0.042700
    100 H36         -5.9010     1.9110     1.5650 h1         1 CF6       0.054950
    101 H37         -5.8530     3.6140     1.1370 h1         1 CF6       0.054950
    102 H38         -7.0880     1.9500    -0.9040 hn         1 CF6       0.311000
    103 H39         -9.8840     3.6180    -0.9280 hc         1 CF6       0.071450
    104 H40         -9.1460     2.1200    -1.4480 hc         1 CF6       0.071450
    105 H41        -11.0900     2.6900     0.8220 h1         1 CF6       0.126700
    106 H42        -12.3200    -0.8840    -4.0280 hc         1 CF6       0.065033
    107 H43        -12.3120    -2.0570    -2.7090 hc         1 CF6       0.065033
    108 H44        -13.8180    -1.2690    -3.1890 hc         1 CF6       0.065033
    109 H45         -6.6660    -2.0930     0.1440 hc         1 CF6       0.051700
    110 H46         -5.7630    -1.0570    -0.9470 hc         1 CF6       0.051700
    111 H47         -6.5790    -0.3690     0.4450 hc         1 CF6       0.051700
    112 H48         -7.1490    -2.6500    -3.8110 hc         1 CF6       0.053033
    113 H49         -6.7220    -1.0120    -4.2940 hc         1 CF6       0.053033
    114 H50         -5.9320    -1.7590    -2.9110 hc         1 CF6       0.053033
    115 H51         -8.4260     0.5540     3.1510 ha         1 CF6       0.132250
    116 H52         -7.6470    -0.9810     4.9160 ha         1 CF6       0.132500
    117 H53         -8.6030    -4.3310     2.4120 ha         1 CF6       0.132500
    118 H54         -9.3490    -2.7960     0.6460 ha         1 CF6       0.132250
@<TRIPOS>BOND
     1     1     2 1   
     2     2     3 ar  
     3     2     5 ar  
     4     3     4 ar  
     5     3    65 1   
     6     4     7 ar  
     7     4    66 1   
     8     5     6 ar  
     9     5    67 1   
    10     6     7 ar  
    11     6    68 1   
    12     7     8 1   
    13     8     9 1   
    14     8    12 2   
    15     9    10 1   
    16     9    20 2   
    17    10    11 1   
    18    10    22 2   
    19    11    69 1   
    20    11    70 1   
    21    11    71 1   
    22    12    13 1   
    23    13    14 1   
    24    13    24 1   
    25    13    72 1   
    26    14    15 2   
    27    14    19 1   
    28    15    16 1   
    29    16    17 2   
    30    17    18 1   
    31    17    19 1   
    32    18    73 1   
    33    18    74 1   
    34    18    75 1   
    35    19    20 1   
    36    20    21 1   
    37    21    22 1   
    38    22    23 1   
    39    23    76 1   
    40    23    77 1   
    41    23    78 1   
    42    24    25 1   
    43    24    79 1   
    44    24    80 1   
    45    25    26 2   
    46    25    27 1   
    47    27    28 1   
    48    27    81 1   
    49    28    29 1   
    50    28    82 1   
    51    28    83 1   
    52    29    30 1   
    53    29    84 1   
    54    29    85 1   
    55    30    31 1   
    56    30    86 1   
    57    30    87 1   
    58    31    32 1   
    59    31    88 1   
    60    31    89 1   
    61    32    33 1   
    62    32    90 1   
    63    32    91 1   
    64    33    34 1   
    65    33    92 1   
    66    33    93 1   
    67    34    35 1   
    68    34    94 1   
    69    34    95 1   
    70    35    36 1   
    71    35    96 1   
    72    35    97 1   
    73    36    37 1   
    74    36    98 1   
    75    36    99 1   
    76    37    38 1   
    77    37   100 1   
    78    37   101 1   
    79    38    39 1   
    80    38   102 1   
    81    39    40 2   
    82    39    41 1   
    83    41    42 1   
    84    41   103 1   
    85    41   104 1   
    86    42    43 1   
    87    42    57 1   
    88    42   105 1   
    89    43    44 2   
    90    43    48 1   
    91    44    45 1   
    92    45    46 2   
    93    46    47 1   
    94    46    48 1   
    95    47   106 1   
    96    47   107 1   
    97    47   108 1   
    98    48    49 1   
    99    49    50 2   
   100    49    55 1   
   101    50    51 1   
   102    50    56 1   
   103    51    52 1   
   104    51    53 2   
   105    52   109 1   
   106    52   110 1   
   107    52   111 1   
   108    53    54 1   
   109    53    55 1   
   110    54   112 1   
   111    54   113 1   
   112    54   114 1   
   113    56    57 2   
   114    56    58 1   
   115    58    59 ar  
   116    58    64 ar  
   117    59    60 ar  
   118    59   115 1   
   119    60    61 ar  
   120    60   116 1   
   121    61    62 1   
   122    61    63 ar  
   123    63    64 ar  
   124    63   117 1   
   125    64   118 1   
@<TRIPOS>SUBSTRUCTURE
     1 CF6         1 TEMP              0 ****  ****    0 ROOT
