@<TRIPOS>MOLECULE
CF6
  118   125     1     0     0
SMALL
No Charge or Current Charge


@<TRIPOS>ATOM
      1 Cl1         12.0120    -5.9140    -3.1620 cl         1 CF6      -0.199500
      2 C45         11.3240    -4.4880    -2.3970 ca         1 CF6       0.131000
      3 C44         11.4390    -4.3110    -1.0110 ca         1 CF6      -0.113750
      4 C43         10.8930    -3.1710    -0.3970 ca         1 CF6      -0.068250
      5 C46         10.6660    -3.5240    -3.1730 ca         1 CF6      -0.113750
      6 C47         10.1180    -2.3810    -2.5640 ca         1 CF6      -0.068250
      7 C42         10.2160    -2.1920    -1.1640 ca         1 CF6      -0.138400
      8 C41          9.6480    -0.9590    -0.5130 ce         1 CF6       0.551000
      9 C4           9.7330    -0.8120     0.9450 cc         1 CF6      -0.210400
     10 C2           8.9200    -1.5470     1.8690 cc         1 CF6      -0.065800
     11 C3           7.8820    -2.5300     1.3820 c3         1 CF6      -0.036800
     12 N9           9.1990     0.0170    -1.2400 n2         1 CF6      -0.557400
     13 C9           9.4350     1.4360    -0.8860 c3         1 CF6       0.106700
     14 C8          10.7890     1.6620    -0.2130 cc         1 CF6       0.381300
     15 N2          11.6590     2.6040    -0.5470 nd         1 CF6      -0.327500
     16 N1          12.6830     2.5950     0.3790 nd         1 CF6      -0.347000
     17 C6          12.4150     1.6690     1.2880 cc         1 CF6       0.408800
     18 C7          13.3080     1.3230     2.4460 c3         1 CF6      -0.129900
     19 N           11.2450     1.0380     0.9300 na         1 CF6      -0.257300
     20 C5          10.5710     0.0300     1.6310 cd         1 CF6      -0.117700
     21 S           10.4530    -0.0240     3.3870 ss         1 CF6       0.241000
     22 C1           9.1880    -1.2540     3.1940 cd         1 CF6      -0.206300
     23 C            8.5280    -1.8470     4.4140 c3         1 CF6      -0.026800
     24 C10          8.2540     1.9770    -0.0390 c3         1 CF6      -0.174900
     25 C11          6.9090     1.7620    -0.7280 c          1 CF6       0.604100
     26 O            6.5530     2.4220    -1.6940 o          1 CF6      -0.588600
     27 N3           6.1130     0.7980    -0.1510 ns         1 CF6      -0.509400
     28 C12          4.7650     0.4410    -0.5970 c3         1 CF6       0.100000
     29 C13          3.7050     1.4380    -0.0860 c3         1 CF6      -0.096400
     30 C14          2.2630     1.0300    -0.4580 c3         1 CF6      -0.073400
     31 C15          1.2050     2.0320     0.0560 c3         1 CF6      -0.073900
     32 C16         -0.2450     1.6120    -0.2720 c3         1 CF6      -0.074400
     33 C17         -1.2900     2.6310     0.2340 c3         1 CF6      -0.074400
     34 C18         -2.7470     2.2030    -0.0480 c3         1 CF6      -0.073900
     35 C19         -3.7810     3.2410     0.4420 c3         1 CF6      -0.073400
     36 C20         -5.2410     2.8020     0.2020 c3         1 CF6      -0.096400
     37 C21         -6.2680     3.8530     0.6650 c3         1 CF6       0.100000
     38 N4          -7.6370     3.3700     0.4800 ns         1 CF6      -0.509400
     39 C22         -8.5980     3.3130     1.4660 c          1 CF6       0.604100
     40 O1          -8.4250     3.7690     2.5870 o          1 CF6      -0.588600
     41 C23         -9.9170     2.6760     1.0370 c3         1 CF6      -0.174900
     42 C24        -10.1260     1.2920     1.7060 c3         1 CF6       0.106700
     43 C34        -11.4400     0.6320     1.3070 cc         1 CF6       0.381300
     44 N8         -12.5810     0.7430     1.9770 nd         1 CF6      -0.327500
     45 N7         -13.5780     0.1170     1.2500 nd         1 CF6      -0.347000
     46 C32        -13.0500    -0.3510     0.1280 cc         1 CF6       0.408800
     47 C33        -13.8030    -1.1440    -0.9040 c3         1 CF6      -0.129900
     48 N6         -11.6910    -0.1390     0.1910 na         1 CF6      -0.257300
     49 C27        -10.9230     0.0580    -0.9690 cc         1 CF6      -0.117700
     50 C26         -9.5520     0.0470    -0.8560 cd         1 CF6      -0.210400
     51 C30         -8.9570     0.4000    -2.1170 cd         1 CF6      -0.065800
     52 C31         -7.4630     0.4920    -2.3270 c3         1 CF6      -0.036800
     53 C28         -9.8840     0.6510    -3.1150 cc         1 CF6      -0.206300
     54 C29         -9.6090     1.0430    -4.5450 c3         1 CF6      -0.026800
     55 S1         -11.5460     0.4830    -2.5490 ss         1 CF6       0.241000
     56 C25         -8.8020    -0.2620     0.3740 cf         1 CF6       0.551000
     57 N5          -8.9590     0.4100     1.4760 n2         1 CF6      -0.557400
     58 C35         -7.8220    -1.3820     0.3710 ca         1 CF6      -0.138400
     59 C40         -6.7750    -1.4440     1.3240 ca         1 CF6      -0.068250
     60 C39         -5.8720    -2.5230     1.3280 ca         1 CF6      -0.113750
     61 C38         -6.0080    -3.5580     0.3920 ca         1 CF6       0.131000
     62 Cl          -4.8800    -4.9080     0.4020 cl         1 CF6      -0.199500
     63 C37         -7.0500    -3.5210    -0.5460 ca         1 CF6      -0.113750
     64 C36         -7.9550    -2.4440    -0.5540 ca         1 CF6      -0.068250
     65 H1          11.9550    -5.0570    -0.4110 ha         1 CF6       0.132500
     66 H2          11.0060    -3.0550     0.6790 ha         1 CF6       0.132250
     67 H3          10.5820    -3.6600    -4.2490 ha         1 CF6       0.132500
     68 H4           9.6130    -1.6470    -3.1890 ha         1 CF6       0.132250
     69 H5           7.3800    -2.1690     0.4770 hc         1 CF6       0.051700
     70 H6           8.3410    -3.4990     1.1530 hc         1 CF6       0.051700
     71 H7           7.1050    -2.6990     2.1370 hc         1 CF6       0.051700
     72 H8           9.4590     2.0260    -1.8130 h1         1 CF6       0.126700
     73 H9          12.9220     1.7550     3.3760 hc         1 CF6       0.065033
     74 H10         13.3870     0.2370     2.5710 hc         1 CF6       0.065033
     75 H11         14.3200     1.7150     2.2890 hc         1 CF6       0.065033
     76 H12          9.0330    -1.5340     5.3360 hc         1 CF6       0.053033
     77 H13          7.4800    -1.5310     4.4850 hc         1 CF6       0.053033
     78 H14          8.5480    -2.9420     4.3800 hc         1 CF6       0.053033
     79 H15          8.2530     1.4830     0.9390 hc         1 CF6       0.071450
     80 H16          8.4030     3.0540     0.1020 hc         1 CF6       0.071450
     81 H17          6.5020     0.3090     0.6470 hn         1 CF6       0.311000
     82 H18          4.7450     0.4050    -1.6950 h1         1 CF6       0.054950
     83 H19          4.5320    -0.5640    -0.2220 h1         1 CF6       0.054950
     84 H20          3.7860     1.5170     1.0050 hc         1 CF6       0.042700
     85 H21          3.9170     2.4340    -0.4960 hc         1 CF6       0.042700
     86 H22          2.1800     0.9450    -1.5490 hc         1 CF6       0.041950
     87 H23          2.0510     0.0370    -0.0410 hc         1 CF6       0.041950
     88 H24          1.3090     2.1380     1.1430 hc         1 CF6       0.037950
     89 H25          1.4030     3.0190    -0.3810 hc         1 CF6       0.037950
     90 H26         -0.3510     1.4950    -1.3580 hc         1 CF6       0.038450
     91 H27         -0.4470     0.6320     0.1780 hc         1 CF6       0.038450
     92 H28         -1.1610     2.7710     1.3150 hc         1 CF6       0.038450
     93 H29         -1.1020     3.6030    -0.2390 hc         1 CF6       0.038450
     94 H30         -2.8760     2.0460    -1.1260 hc         1 CF6       0.037950
     95 H31         -2.9410     1.2410     0.4420 hc         1 CF6       0.037950
     96 H32         -3.6320     3.4210     1.5140 hc         1 CF6       0.041950
     97 H33         -3.6030     4.1960    -0.0710 hc         1 CF6       0.041950
     98 H34         -5.3880     2.6040    -0.8670 hc         1 CF6       0.042700
     99 H35         -5.4260     1.8590     0.7330 hc         1 CF6       0.042700
    100 H36         -6.0930     4.0860     1.7240 h1         1 CF6       0.054950
    101 H37         -6.1380     4.7780     0.0870 h1         1 CF6       0.054950
    102 H38         -7.8900     2.9790    -0.4190 hn         1 CF6       0.311000
    103 H39        -10.7370     3.3320     1.3510 hc         1 CF6       0.071450
    104 H40         -9.9430     2.5680    -0.0530 hc         1 CF6       0.071450
    105 H41        -10.2050     1.4770     2.7870 h1         1 CF6       0.126700
    106 H42        -14.2600    -0.4810    -1.6480 hc         1 CF6       0.065033
    107 H43        -13.1430    -1.8490    -1.4220 hc         1 CF6       0.065033
    108 H44        -14.6060    -1.7230    -0.4340 hc         1 CF6       0.065033
    109 H45         -7.0670    -0.4520    -2.7220 hc         1 CF6       0.051700
    110 H46         -7.2060     1.2860    -3.0380 hc         1 CF6       0.051700
    111 H47         -6.9330     0.7120    -1.3940 hc         1 CF6       0.051700
    112 H48        -10.5230     1.0090    -5.1510 hc         1 CF6       0.053033
    113 H49         -9.2090     2.0630    -4.6000 hc         1 CF6       0.053033
    114 H50         -8.8780     0.3660    -5.0040 hc         1 CF6       0.053033
    115 H51         -6.6490    -0.6520     2.0600 ha         1 CF6       0.132250
    116 H52         -5.0670    -2.5560     2.0590 ha         1 CF6       0.132500
    117 H53         -7.1590    -4.3290    -1.2650 ha         1 CF6       0.132500
    118 H54         -8.7640    -2.4420    -1.2840 ha         1 CF6       0.132250
@<TRIPOS>BOND
     1     1     2 1   
     2     2     3 ar  
     3     2     5 ar  
     4     3     4 ar  
     5     3    65 1   
     6     4     7 ar  
     7     4    66 1   
     8     5     6 ar  
     9     5    67 1   
    10     6     7 ar  
    11     6    68 1   
    12     7     8 1   
    13     8     9 1   
    14     8    12 2   
    15     9    10 1   
    16     9    20 2   
    17    10    11 1   
    18    10    22 2   
    19    11    69 1   
    20    11    70 1   
    21    11    71 1   
    22    12    13 1   
    23    13    14 1   
    24    13    24 1   
    25    13    72 1   
    26    14    15 2   
    27    14    19 1   
    28    15    16 1   
    29    16    17 2   
    30    17    18 1   
    31    17    19 1   
    32    18    73 1   
    33    18    74 1   
    34    18    75 1   
    35    19    20 1   
    36    20    21 1   
    37    21    22 1   
    38    22    23 1   
    39    23    76 1   
    40    23    77 1   
    41    23    78 1   
    42    24    25 1   
    43    24    79 1   
    44    24    80 1   
    45    25    26 2   
    46    25    27 1   
    47    27    28 1   
    48    27    81 1   
    49    28    29 1   
    50    28    82 1   
    51    28    83 1   
    52    29    30 1   
    53    29    84 1   
    54    29    85 1   
    55    30    31 1   
    56    30    86 1   
    57    30    87 1   
    58    31    32 1   
    59    31    88 1   
    60    31    89 1   
    61    32    33 1   
    62    32    90 1   
    63    32    91 1   
    64    33    34 1   
    65    33    92 1   
    66    33    93 1   
    67    34    35 1   
    68    34    94 1   
    69    34    95 1   
    70    35    36 1   
    71    35    96 1   
    72    35    97 1   
    73    36    37 1   
    74    36    98 1   
    75    36    99 1   
    76    37    38 1   
    77    37   100 1   
    78    37   101 1   
    79    38    39 1   
    80    38   102 1   
    81    39    40 2   
    82    39    41 1   
    83    41    42 1   
    84    41   103 1   
    85    41   104 1   
    86    42    43 1   
    87    42    57 1   
    88    42   105 1   
    89    43    44 2   
    90    43    48 1   
    91    44    45 1   
    92    45    46 2   
    93    46    47 1   
    94    46    48 1   
    95    47   106 1   
    96    47   107 1   
    97    47   108 1   
    98    48    49 1   
    99    49    50 2   
   100    49    55 1   
   101    50    51 1   
   102    50    56 1   
   103    51    52 1   
   104    51    53 2   
   105    52   109 1   
   106    52   110 1   
   107    52   111 1   
   108    53    54 1   
   109    53    55 1   
   110    54   112 1   
   111    54   113 1   
   112    54   114 1   
   113    56    57 2   
   114    56    58 1   
   115    58    59 ar  
   116    58    64 ar  
   117    59    60 ar  
   118    59   115 1   
   119    60    61 ar  
   120    60   116 1   
   121    61    62 1   
   122    61    63 ar  
   123    63    64 ar  
   124    63   117 1   
   125    64   118 1   
@<TRIPOS>SUBSTRUCTURE
     1 CF6         1 TEMP              0 ****  ****    0 ROOT
