@<TRIPOS>MOLECULE
CF7
   69    73     1     0     0
SMALL
abcg2


@<TRIPOS>ATOM
      1 C5          -4.6790     1.0440     0.4870 ca         1 CF7       0.114600
      2 C6          -3.5860     1.5850     1.1760 ca         1 CF7      -0.155000
      3 C7          -2.4170     0.8710     1.3290 ca         1 CF7      -0.043000
      4 C8          -2.2730    -0.4070     0.7810 ca         1 CF7      -0.069000
      5 C10          0.1490    -0.6650     0.7380 c          1 CF7       0.660100
      6 N12          1.1780    -1.5380     0.9500 n          1 CF7      -0.426800
      7 C13          1.0240    -2.9240     1.3530 c6         1 CF7       0.060000
      8 C17          2.4780    -1.2190     0.3950 c6         1 CF7       0.071000
      9 C21          6.5360     0.2720     0.1320 ca         1 CF7       0.017000
     10 C22          6.8150     1.6110     0.4270 ca         1 CF7      -0.179000
     11 C24          8.7560     1.5470    -0.9930 ca         1 CF7      -0.045000
     12 C1          -5.8850     4.2050     0.1930 c3         1 CF7      -0.105600
     13 C3          -7.4890     3.0050     1.7680 c3         1 CF7      -0.105600
     14 N4          -5.8830     1.7200     0.3220 n          1 CF7      -0.305000
     15 N9          -1.1110    -1.1700     0.9540 ns         1 CF7      -0.157000
     16 O11          0.3320     0.4940     0.4020 o          1 CF7      -0.617100
     17 C14          2.1870    -3.3230     2.2440 c6         1 CF7       0.143600
     18 O15          3.4290    -3.0730     1.6230 os         1 CF7      -0.412000
     19 C16          3.5810    -1.7160     1.3320 c6         1 CF7       0.072300
     20 C18          4.9280    -1.5490     0.6440 c          1 CF7       0.612100
     21 O19          5.4730    -2.4570     0.0570 o          1 CF7      -0.527100
     22 N20          5.4090    -0.2760     0.7240 ns         1 CF7      -0.150000
     23 C23          7.9070     2.2370    -0.1270 ca         1 CF7      -0.032000
     24 C25          9.8830     2.2010    -1.5610 cg         1 CF7       0.330000
     25 N26         10.7900     2.7510    -2.0100 n1         1 CF7      -0.441000
     26 C27          8.4710     0.2120    -1.2800 ca         1 CF7       0.178000
     27 CL           9.5040    -0.6620    -2.3430 cl         1 CF7      -0.164000
     28 C29          7.3790    -0.4320    -0.7310 ca         1 CF7      -0.142000
     29 C30         -3.3390    -0.9400     0.0860 ca         1 CF7      -0.065000
     30 C31         -4.5290    -0.2300    -0.0590 ca         1 CF7      -0.196600
     31 C32         -5.6130    -0.8260    -0.8340 c          1 CF7       0.591600
     32 O33         -5.5790    -1.9630    -1.2660 o          1 CF7      -0.533000
     33 N34         -6.6810     0.0040    -1.0880 n          1 CF7      -0.368400
     34 C35         -7.7580    -0.5280    -1.9310 c3         1 CF7       0.130000
     35 C36         -8.7100    -1.4030    -1.1620 cx         1 CF7      -0.149700
     36 C37         -9.8260    -0.7920    -0.3710 cx         1 CF7      -0.126400
     37 C38        -10.1230    -1.5270    -1.6430 cx         1 CF7      -0.126400
     38 C39         -6.8310     1.2850    -0.5670 c          1 CF7       0.626000
     39 O40         -7.7800     1.9720    -0.8830 o          1 CF7      -0.556000
     40 H1          -3.6180     2.5760     1.6030 ha         1 CF7       0.127000
     41 H2          -1.6120     1.3210     1.8910 ha         1 CF7       0.137000
     42 H3           0.1160    -3.0590     1.9380 h1         1 CF7       0.057200
     43 H4           0.9740    -3.5830     0.4790 h1         1 CF7       0.057200
     44 H5           2.5970    -1.6920    -0.5880 h1         1 CF7       0.074200
     45 H6           2.5620    -0.1440     0.2600 h1         1 CF7       0.074200
     46 H7           6.1670     2.1650     1.0940 ha         1 CF7       0.121000
     47 H8          -6.6210     4.2960    -0.6040 hc         1 CF7       0.051200
     48 H9          -5.9390     5.1030     0.8080 hc         1 CF7       0.051200
     49 H10         -4.8920     4.1730    -0.2570 hc         1 CF7       0.051200
     50 H11         -5.4120     2.9810     1.8630 h1         1 CF7       0.049700
     51 H12         -8.3270     3.1800     1.1010 hc         1 CF7       0.051200
     52 H13         -7.6600     2.0760     2.3120 hc         1 CF7       0.051200
     53 H14         -7.4630     3.8130     2.5000 hc         1 CF7       0.051200
     54 H15         -1.2470    -2.1650     0.8700 hn         1 CF7       0.151000
     55 H16          2.1170    -2.7830     3.1970 h1         1 CF7       0.062200
     56 H17          2.1390    -4.3910     2.4530 h1         1 CF7       0.062200
     57 H18          3.5540    -1.1130     2.2540 h1         1 CF7       0.054700
     58 H19          4.8930     0.3590     1.3160 hn         1 CF7       0.157000
     59 H20          8.1110     3.2720     0.1100 ha         1 CF7       0.131000
     60 H21          7.1960    -1.4650    -0.9780 ha         1 CF7       0.168000
     61 H22         -3.2580    -1.9220    -0.3640 ha         1 CF7       0.137000
     62 H23         -8.2860     0.3120    -2.3740 h1         1 CF7       0.073200
     63 H24         -7.2980    -1.0870    -2.7440 h1         1 CF7       0.073200
     64 H25         -8.2690    -2.3050    -0.7530 hc         1 CF7       0.090700
     65 H26        -10.0980    -1.2600     0.5660 hc         1 CF7       0.073700
     66 H27         -9.9200     0.2860    -0.3740 hc         1 CF7       0.073700
     67 H28        -10.4180    -0.9460    -2.5080 hc         1 CF7       0.073700
     68 H29        -10.5970    -2.4980    -1.5810 hc         1 CF7       0.073700
     69 C2          -6.1390     2.9790     1.0570 c3         1 CF7       0.130700
@<TRIPOS>BOND
     1     1     2 ar  
     2     1    14 1   
     3     1    30 ar  
     4     2     3 ar  
     5     2    40 1   
     6     3     4 ar  
     7     3    41 1   
     8     4    15 1   
     9     4    29 ar  
    10     5     6 1   
    11     5    15 1   
    12     5    16 2   
    13     6     7 1   
    14     6     8 1   
    15     7    17 1   
    16     7    42 1   
    17     7    43 1   
    18     8    19 1   
    19     8    44 1   
    20     8    45 1   
    21     9    10 ar  
    22     9    22 1   
    23     9    28 ar  
    24    10    23 ar  
    25    10    46 1   
    26    11    23 ar  
    27    11    24 1   
    28    11    26 ar  
    29    12    47 1   
    30    12    48 1   
    31    12    49 1   
    32    12    69 1   
    33    13    51 1   
    34    13    52 1   
    35    13    53 1   
    36    13    69 1   
    37    14    38 1   
    38    14    69 1   
    39    15    54 1   
    40    17    18 1   
    41    17    55 1   
    42    17    56 1   
    43    18    19 1   
    44    19    20 1   
    45    19    57 1   
    46    20    21 2   
    47    20    22 1   
    48    22    58 1   
    49    23    59 1   
    50    24    25 3   
    51    26    27 1   
    52    26    28 ar  
    53    28    60 1   
    54    29    30 ar  
    55    29    61 1   
    56    30    31 1   
    57    31    32 2   
    58    31    33 1   
    59    33    34 1   
    60    33    38 1   
    61    34    35 1   
    62    34    62 1   
    63    34    63 1   
    64    35    36 1   
    65    35    37 1   
    66    35    64 1   
    67    36    37 1   
    68    36    65 1   
    69    36    66 1   
    70    37    67 1   
    71    37    68 1   
    72    38    39 2   
    73    50    69 1   
@<TRIPOS>SUBSTRUCTURE
     1 CF7         1 TEMP              0 ****  ****    0 ROOT
