@<TRIPOS>MOLECULE
CF7
   69    73     1     0     0
SMALL
No Charge or Current Charge


@<TRIPOS>ATOM
      1 C5          -4.7570     1.2060    -0.0110 ca         1 CF7       0.114600
      2 C6          -3.5530     1.9490    -0.0400 ca         1 CF7      -0.155000
      3 C7          -2.3020     1.3120     0.0100 ca         1 CF7      -0.043000
      4 C8          -2.2220    -0.0930     0.0310 ca         1 CF7      -0.069000
      5 C10          0.3180    -0.4060     0.3090 c          1 CF7       0.660100
      6 N12          1.2950    -1.4290     0.2450 n          1 CF7      -0.426800
      7 C13          0.9590    -2.8150    -0.2320 c6         1 CF7       0.060000
      8 C17          2.7490    -1.0590     0.2950 c6         1 CF7       0.071000
      9 C21          6.8180     0.1500     0.5870 ca         1 CF7       0.017000
     10 C22          6.7790     1.5210     0.8980 ca         1 CF7      -0.179000
     11 C24          9.1910     1.7010     0.5940 ca         1 CF7      -0.045000
     12 C1          -6.3050     4.2520    -0.8630 c3         1 CF7      -0.105600
     13 C3          -7.3110     3.4640     1.3880 c3         1 CF7      -0.105600
     14 N4          -6.0470     1.8360    -0.1470 n          1 CF7      -0.305000
     15 N9          -0.9930    -0.8100     0.0790 ns         1 CF7      -0.157000
     16 O11          0.6360     0.7490     0.5620 o          1 CF7      -0.617100
     17 C14          2.0530    -3.8860     0.0010 c6         1 CF7       0.143600
     18 O15          3.3460    -3.3780    -0.3660 os         1 CF7      -0.412000
     19 C16          3.7450    -2.2470     0.4440 c6         1 CF7       0.072300
     20 C18          5.2520    -1.8710     0.2760 c          1 CF7       0.612100
     21 O19          6.0670    -2.6820    -0.1540 o          1 CF7      -0.527100
     22 N20          5.5860    -0.5600     0.6080 ns         1 CF7      -0.150000
     23 C23          7.9530     2.2940     0.9010 ca         1 CF7      -0.032000
     24 C25         10.3820     2.5030     0.6010 cg         1 CF7       0.330000
     25 N26         11.3430     3.1670     0.6110 n1         1 CF7      -0.441000
     26 C27          9.2400     0.3260     0.2850 ca         1 CF7       0.178000
     27 Cl          10.7670    -0.4740    -0.1040 cl         1 CF7      -0.164000
     28 C29          8.0630    -0.4420     0.2830 ca         1 CF7      -0.142000
     29 C30         -3.4110    -0.8330    -0.0650 ca         1 CF7      -0.065000
     30 C31         -4.6690    -0.1910    -0.1270 ca         1 CF7      -0.196600
     31 C32         -5.9080    -1.0000    -0.3490 c          1 CF7       0.591600
     32 O33         -5.8720    -2.2250    -0.3380 o          1 CF7      -0.533000
     33 N34         -7.0920    -0.2970    -0.5910 n          1 CF7      -0.368400
     34 C35         -8.3220    -1.0870    -0.8760 c3         1 CF7       0.130000
     35 C36         -9.0380    -1.5280     0.3990 cx         1 CF7      -0.149700
     36 C37         -9.9880    -0.6050     1.1270 cx         1 CF7      -0.126400
     37 C38        -10.5220    -1.8140     0.3970 cx         1 CF7      -0.126400
     38 C39         -7.1910     1.1020    -0.5420 c          1 CF7       0.626000
     39 O40         -8.2430     1.6620    -0.8220 o          1 CF7      -0.556000
     40 H1          -3.5580     3.0320    -0.1010 ha         1 CF7       0.127000
     41 H2          -1.4090     1.9300     0.0110 ha         1 CF7       0.137000
     42 H3           0.0430    -3.1660     0.2640 h1         1 CF7       0.057200
     43 H4           0.7460    -2.7670    -1.3100 h1         1 CF7       0.057200
     44 H5           2.9910    -0.5090    -0.6270 h1         1 CF7       0.074200
     45 H6           2.9030    -0.3630     1.1330 h1         1 CF7       0.074200
     46 H7           5.8310     1.9980     1.1390 ha         1 CF7       0.121000
     47 H8          -7.2250     4.1030    -1.4400 hc         1 CF7       0.051200
     48 H9          -6.2970     5.2830    -0.4920 hc         1 CF7       0.051200
     49 H10         -5.4510     4.1260    -1.5390 hc         1 CF7       0.051200
     50 H11         -5.3110     3.5240     0.8580 h1         1 CF7       0.049700
     51 H12         -8.3220     3.4190     0.9680 hc         1 CF7       0.051200
     52 H13         -7.2250     2.7070     2.1760 hc         1 CF7       0.051200
     53 H14         -7.1950     4.4500     1.8540 hc         1 CF7       0.051200
     54 H15         -1.0930    -1.8010    -0.0890 hn         1 CF7       0.151000
     55 H16          2.0690    -4.1810     1.0600 h1         1 CF7       0.062200
     56 H17          1.8330    -4.7820    -0.5960 h1         1 CF7       0.062200
     57 H18          3.6820    -2.5680     1.4940 h1         1 CF7       0.054700
     58 H19          4.8080    -0.0030     0.9350 hn         1 CF7       0.157000
     59 H20          7.8970     3.3540     1.1430 ha         1 CF7       0.131000
     60 H21          8.1490    -1.4970     0.0470 ha         1 CF7       0.168000
     61 H22         -3.3540    -1.9190    -0.1170 ha         1 CF7       0.137000
     62 H23         -9.0120    -0.5080    -1.5040 h1         1 CF7       0.073200
     63 H24         -8.0610    -1.9760    -1.4640 h1         1 CF7       0.073200
     64 H25         -8.4200    -2.1770     1.0160 hc         1 CF7       0.090700
     65 H26         -9.9830    -0.6290     2.2150 hc         1 CF7       0.073700
     66 H27        -10.1890     0.3730     0.6960 hc         1 CF7       0.073700
     67 H28        -11.0770    -1.6450    -0.5240 hc         1 CF7       0.073700
     68 H29        -10.8780    -2.6510     0.9930 hc         1 CF7       0.073700
     69 C2          -6.2200     3.2530     0.3100 c3         1 CF7       0.130700
@<TRIPOS>BOND
     1     1     2 ar  
     2     1    14 1   
     3     1    30 ar  
     4     2     3 ar  
     5     2    40 1   
     6     3     4 ar  
     7     3    41 1   
     8     4    15 1   
     9     4    29 ar  
    10     5     6 1   
    11     5    15 1   
    12     5    16 2   
    13     6     7 1   
    14     6     8 1   
    15     7    17 1   
    16     7    42 1   
    17     7    43 1   
    18     8    19 1   
    19     8    44 1   
    20     8    45 1   
    21     9    10 ar  
    22     9    22 1   
    23     9    28 ar  
    24    10    23 ar  
    25    10    46 1   
    26    11    23 ar  
    27    11    24 1   
    28    11    26 ar  
    29    12    47 1   
    30    12    48 1   
    31    12    49 1   
    32    12    69 1   
    33    13    51 1   
    34    13    52 1   
    35    13    53 1   
    36    13    69 1   
    37    14    38 1   
    38    14    69 1   
    39    15    54 1   
    40    17    18 1   
    41    17    55 1   
    42    17    56 1   
    43    18    19 1   
    44    19    20 1   
    45    19    57 1   
    46    20    21 2   
    47    20    22 1   
    48    22    58 1   
    49    23    59 1   
    50    24    25 3   
    51    26    27 1   
    52    26    28 ar  
    53    28    60 1   
    54    29    30 ar  
    55    29    61 1   
    56    30    31 1   
    57    31    32 2   
    58    31    33 1   
    59    33    34 1   
    60    33    38 1   
    61    34    35 1   
    62    34    62 1   
    63    34    63 1   
    64    35    36 1   
    65    35    37 1   
    66    35    64 1   
    67    36    37 1   
    68    36    65 1   
    69    36    66 1   
    70    37    67 1   
    71    37    68 1   
    72    38    39 2   
    73    50    69 1   
@<TRIPOS>SUBSTRUCTURE
     1 CF7         1 TEMP              0 ****  ****    0 ROOT
