@<TRIPOS>MOLECULE
CF8
   38    40     1     0     0
SMALL
No Charge or Current Charge


@<TRIPOS>ATOM
      1 C4          -2.4970    -2.1000     0.7910 ca         1 CF8      -0.116000
      2 C5          -2.3020    -3.4730     1.0090 ca         1 CF8      -0.117000
      3 C6          -1.3750    -4.1800     0.2300 ca         1 CF8      -0.137000
      4 C7          -0.6460    -3.5140    -0.7680 ca         1 CF8      -0.114000
      5 C8          -0.8360    -2.1350    -0.9970 ca         1 CF8      -0.080300
      6 C9           0.0040    -1.4380    -2.0710 c3         1 CF8       0.019200
      7 C10          1.0180    -0.4720    -1.4650 ca         1 CF8      -0.057300
      8 C11          2.0360    -0.9590    -0.6220 ca         1 CF8      -0.113000
      9 C12          2.9680    -0.0760    -0.0450 ca         1 CF8      -0.037000
     10 C13          3.9820    -0.5670     0.8000 ca         1 CF8      -0.100000
     11 C14          4.9100     0.3190     1.3750 ca         1 CF8      -0.124000
     12 C15          4.8270     1.6960     1.1080 ca         1 CF8      -0.127000
     13 C           -2.0260     1.0550     0.4820 ce         1 CF8       0.001400
     14 O           -2.3090     3.3790     0.9060 o          1 CF8      -0.702500
     15 C1          -2.3090     2.4970     0.0560 c          1 CF8       0.717200
     16 C16          3.8170     2.1910     0.2650 ca         1 CF8      -0.087000
     17 C17          2.8850     1.3080    -0.3130 ca         1 CF8      -0.035000
     18 C18          1.8710     1.7960    -1.1570 ca         1 CF8      -0.092000
     19 C19          0.9430     0.9100    -1.7310 ca         1 CF8      -0.077000
     20 C3          -1.7660    -1.4180    -0.2030 ca         1 CF8      -0.000800
     21 O1          -2.5350     2.7320    -1.1250 o          1 CF8      -0.702500
     22 S           -1.6630     0.7250     2.2360 sh         1 CF8      -0.299400
     23 H1          -3.2320    -1.5660     1.3870 ha         1 CF8       0.122000
     24 H2          -2.8730    -3.9890     1.7780 ha         1 CF8       0.098000
     25 H3          -1.2210    -5.2430     0.3980 ha         1 CF8       0.095000
     26 H4           0.0730    -4.0730    -1.3610 ha         1 CF8       0.095000
     27 H5           0.5400    -2.1810    -2.6750 hc         1 CF8       0.050700
     28 H6          -0.6510    -0.9190    -2.7800 hc         1 CF8       0.050700
     29 H7           2.0970    -2.0240    -0.4120 ha         1 CF8       0.103000
     30 H8           4.0510    -1.6310     1.0120 ha         1 CF8       0.102000
     31 H9           5.6920    -0.0630     2.0280 ha         1 CF8       0.097000
     32 H10          5.5460     2.3800     1.5540 ha         1 CF8       0.100000
     33 H12          3.7600     3.2580     0.0640 ha         1 CF8       0.111000
     34 H13          1.7990     2.8600    -1.3690 ha         1 CF8       0.124000
     35 H14          0.1610     1.3010    -2.3780 ha         1 CF8       0.150000
     36 H15         -2.1880     0.2760    -1.4650 ha         1 CF8       0.209000
     37 H16         -1.4050    -0.5970     2.1190 hs         1 CF8       0.139800
     38 C2          -2.0010     0.0230    -0.4210 cf         1 CF8      -0.265200
@<TRIPOS>BOND
     1     1     2 ar  
     2     1    20 ar  
     3     1    23 1   
     4     2     3 ar  
     5     2    24 1   
     6     3     4 ar  
     7     3    25 1   
     8     4     5 ar  
     9     4    26 1   
    10     5     6 1   
    11     5    20 ar  
    12     6     7 1   
    13     6    27 1   
    14     6    28 1   
    15     7     8 ar  
    16     7    19 ar  
    17     8     9 ar  
    18     8    29 1   
    19     9    10 ar  
    20     9    17 ar  
    21    10    11 ar  
    22    10    30 1   
    23    11    12 ar  
    24    11    31 1   
    25    12    16 ar  
    26    12    32 1   
    27    13    15 1   
    28    13    22 1   
    29    13    38 2   
    30    14    15 1   
    31    15    21 1   
    32    16    17 ar  
    33    16    33 1   
    34    17    18 ar  
    35    18    19 ar  
    36    18    34 1   
    37    19    35 1   
    38    20    38 1   
    39    22    37 1   
    40    36    38 1   
@<TRIPOS>SUBSTRUCTURE
     1 CF8         1 TEMP              0 ****  ****    0 ROOT
