@<TRIPOS>MOLECULE
CF8
   38    40     1     0     0
SMALL
abcg2


@<TRIPOS>ATOM
      1 C4          -2.5560    -2.1210     0.7530 ca         1 CF8      -0.116000
      2 C5          -2.2880    -3.4540     1.0320 ca         1 CF8      -0.117000
      3 C6          -1.3000    -4.1190     0.3200 ca         1 CF8      -0.137000
      4 C7          -0.5890    -3.4440    -0.6630 ca         1 CF8      -0.114000
      5 C8          -0.8450    -2.1070    -0.9490 ca         1 CF8      -0.080300
      6 C9          -0.0210    -1.3810    -1.9820 c3         1 CF8       0.019200
      7 C10          0.9960    -0.4560    -1.3530 ca         1 CF8      -0.057300
      8 C11          2.0730    -0.9650    -0.6740 ca         1 CF8      -0.113000
      9 C12          3.0330    -0.1230    -0.0690 ca         1 CF8      -0.037000
     10 C13          4.1510    -0.6390     0.6290 ca         1 CF8      -0.100000
     11 C14          5.0640     0.2020     1.2040 ca         1 CF8      -0.124000
     12 C15          4.9050     1.6010     1.1090 ca         1 CF8      -0.127000
     13 C           -2.1050     1.0240     0.2660 ce         1 CF8       0.001400
     14 O           -2.4180     3.3070     0.6570 o          1 CF8      -0.702500
     15 C1          -2.4230     2.4310    -0.2280 c          1 CF8       0.717200
     16 C16          3.8350     2.1290     0.4390 ca         1 CF8      -0.087000
     17 C17          2.8740     1.2840    -0.1650 ca         1 CF8      -0.035000
     18 C18          1.7580     1.7920    -0.8680 ca         1 CF8      -0.092000
     19 C19          0.8490     0.9480    -1.4440 ca         1 CF8      -0.077000
     20 C3          -1.8450    -1.4330    -0.2310 ca         1 CF8      -0.000800
     21 O1          -2.6550     2.5730    -1.4400 o          1 CF8      -0.702500
     22 S           -1.6310     1.0350     1.9590 sh         1 CF8      -0.299400
     23 H1          -3.3400    -1.6060     1.2950 ha         1 CF8       0.122000
     24 H2          -2.8530    -3.9710     1.7970 ha         1 CF8       0.098000
     25 H3          -1.0850    -5.1600     0.5250 ha         1 CF8       0.095000
     26 H4           0.1800    -3.9660    -1.2200 ha         1 CF8       0.095000
     27 H5           0.4960    -2.1160    -2.6040 hc         1 CF8       0.050700
     28 H6          -0.6680    -0.8100    -2.6520 hc         1 CF8       0.050700
     29 H7           2.2050    -2.0400    -0.5930 ha         1 CF8       0.103000
     30 H8           4.2750    -1.7130     0.7030 ha         1 CF8       0.102000
     31 H9           5.9160    -0.2050     1.7350 ha         1 CF8       0.097000
     32 H10          5.6360     2.2550     1.5680 ha         1 CF8       0.100000
     33 H12          3.7110     3.2030     0.3630 ha         1 CF8       0.111000
     34 H13          1.6250     2.8640    -0.9440 ha         1 CF8       0.124000
     35 H14         -0.0070     1.3610    -1.9630 ha         1 CF8       0.150000
     36 H15         -2.3910     0.1920    -1.5830 ha         1 CF8       0.209000
     37 H16         -1.2670    -0.2520     2.0590 hs         1 CF8       0.139800
     38 C2          -2.1500    -0.0330    -0.5480 cf         1 CF8      -0.265200
@<TRIPOS>BOND
     1     1     2 ar  
     2     1    20 ar  
     3     1    23 1   
     4     2     3 ar  
     5     2    24 1   
     6     3     4 ar  
     7     3    25 1   
     8     4     5 ar  
     9     4    26 1   
    10     5     6 1   
    11     5    20 ar  
    12     6     7 1   
    13     6    27 1   
    14     6    28 1   
    15     7     8 ar  
    16     7    19 ar  
    17     8     9 ar  
    18     8    29 1   
    19     9    10 ar  
    20     9    17 ar  
    21    10    11 ar  
    22    10    30 1   
    23    11    12 ar  
    24    11    31 1   
    25    12    16 ar  
    26    12    32 1   
    27    13    15 1   
    28    13    22 1   
    29    13    38 2   
    30    14    15 1   
    31    15    21 1   
    32    16    17 ar  
    33    16    33 1   
    34    17    18 ar  
    35    18    19 ar  
    36    18    34 1   
    37    19    35 1   
    38    20    38 1   
    39    22    37 1   
    40    36    38 1   
@<TRIPOS>SUBSTRUCTURE
     1 CF8         1 TEMP              0 ****  ****    0 ROOT
