@<TRIPOS>MOLECULE
CFA
   18    18     1     0     0
SMALL
bcc


@<TRIPOS>ATOM
      1 C1           0.4170    -0.0100     3.8270 c          1 CFA       0.940600
      2 C2           0.9490    -0.0060     2.3840 c3         1 CFA      -0.025600
      3 C7           0.1530    -0.0150     0.1530 ca         1 CFA       0.190100
      4 C8          -0.9360    -0.0280    -0.7290 ca         1 CFA      -0.030600
      5 C3          -0.7640    -0.0270    -2.0990 ca         1 CFA      -0.086000
      6 C4           0.5230    -0.0140    -2.6160 ca         1 CFA      -0.037600
      7 C5           1.6190    -0.0010    -1.7750 ca         1 CFA      -0.081000
      8 CL3         -2.5340    -0.0440    -0.0750 cl         1 CFA      -0.089400
      9 C6           1.4320    -0.0020    -0.4000 ca         1 CFA      -0.230000
     10 O1           1.3210    -0.0120     4.6840 o          1 CFA      -0.810800
     11 O2          -0.8090    -0.0100     4.0030 o          1 CFA      -0.810800
     12 O3          -0.1240    -0.0160     1.4560 os         1 CFA      -0.245900
     13 CL4          0.7460    -0.0130    -4.3350 cl         1 CFA      -0.148400
     14 H2C1         1.5750     0.8820     2.2360 h1         1 CFA       0.020700
     15 H2C2         1.5930    -0.8810     2.2340 h1         1 CFA       0.020700
     16 H3          -1.6250    -0.0360    -2.7530 ha         1 CFA       0.144000
     17 H5           2.6240     0.0090    -2.1760 ha         1 CFA       0.132000
     18 H6           2.3070     0.0080     0.2360 ha         1 CFA       0.148000
@<TRIPOS>BOND
     1     1     2 1   
     2     1    10 1   
     3     1    11 1   
     4     2    12 1   
     5     2    14 1   
     6     2    15 1   
     7     3     4 ar  
     8     3     9 ar  
     9     3    12 1   
    10     4     5 ar  
    11     4     8 1   
    12     5     6 ar  
    13     5    16 1   
    14     6     7 ar  
    15     6    13 1   
    16     7     9 ar  
    17     7    17 1   
    18     9    18 1   
@<TRIPOS>SUBSTRUCTURE
     1 CFA         1 TEMP              0 ****  ****    0 ROOT
