@<TRIPOS>MOLECULE
CFA
   18    18     1     0     0
SMALL
No Charge or Current Charge


@<TRIPOS>ATOM
      1 C1           0.4570    -0.0100     3.9160 c          1 CFA       0.730000
      2 C2           0.9670    -0.0060     2.4460 c3         1 CFA      -0.002400
      3 C7           0.1280    -0.0150     0.1110 ca         1 CFA       0.190100
      4 C8          -0.9790    -0.0270    -0.7680 ca         1 CFA       0.061000
      5 C3          -0.7810    -0.0260    -2.1600 ca         1 CFA      -0.068000
      6 C4           0.5210    -0.0140    -2.6830 ca         1 CFA       0.054000
      7 C5           1.6290    -0.0020    -1.8190 ca         1 CFA      -0.063000
      8 Cl3         -2.6290    -0.0430    -0.1420 cl         1 CFA      -0.181000
      9 C6           1.4370    -0.0030    -0.4250 ca         1 CFA      -0.212000
     10 O1           1.2990    -0.0010     4.8050 o          1 CFA      -0.705500
     11 O2          -0.7480    -0.0210     4.1380 o          1 CFA      -0.705500
     12 O3          -0.1060    -0.0170     1.4740 os         1 CFA      -0.269100
     13 Cl4          0.7670    -0.0120    -4.4240 cl         1 CFA      -0.240000
     14 H2C1         1.5880     0.8900     2.3130 h1         1 CFA       0.020700
     15 H2C2         1.6050    -0.8890     2.3140 h1         1 CFA       0.020700
     16 H3          -1.6360    -0.0350    -2.8300 ha         1 CFA       0.126000
     17 H5           2.6360     0.0080    -2.2300 ha         1 CFA       0.114000
     18 H6           2.3110     0.0060     0.2200 ha         1 CFA       0.130000
@<TRIPOS>BOND
     1     1     2 1   
     2     1    10 1   
     3     1    11 1   
     4     2    12 1   
     5     2    14 1   
     6     2    15 1   
     7     3     4 ar  
     8     3     9 ar  
     9     3    12 1   
    10     4     5 ar  
    11     4     8 1   
    12     5     6 ar  
    13     5    16 1   
    14     6     7 ar  
    15     6    13 1   
    16     7     9 ar  
    17     7    17 1   
    18     9    18 1   
@<TRIPOS>SUBSTRUCTURE
     1 CFA         1 TEMP              0 ****  ****    0 ROOT
