@<TRIPOS>MOLECULE
CFB
   31    33     1     0     0
SMALL
No Charge or Current Charge


@<TRIPOS>ATOM
      1 O5          -4.6700     1.2540    -1.9260 oh         1 CFB      -0.705000
      2 C5          -4.4410     0.7050    -0.6140 c3         1 CFB       0.140600
      3 C4          -3.4580    -0.5050    -0.6670 c5         1 CFB       0.167300
      4 O4          -2.1070    -0.0190    -0.9180 os         1 CFB      -0.426000
      5 C3          -3.3800    -1.3330     0.6690 c5         1 CFB       0.113300
      6 O3          -3.0820    -2.7220     0.4300 oh         1 CFB      -0.701000
      7 C2          -2.2090    -0.6130     1.3950 c5         1 CFB       0.107300
      8 F           -2.6400     0.5900     1.9700 f          1 CFB      -0.245000
      9 C1          -1.2560    -0.4140     0.1790 c5         1 CFB       0.298300
     10 N9          -0.1340     0.5220     0.2900 na         1 CFB      -0.288300
     11 C8          -0.1860     1.8170     0.8170 cc         1 CFB       0.432700
     12 N7           1.0330     2.3930     0.8290 nd         1 CFB      -0.556100
     13 C7           1.8610     1.4050     0.2880 ca         1 CFB      -0.096600
     14 C9           1.1660     0.2700    -0.0450 ca         1 CFB       0.132500
     15 N3           1.7670    -0.8070    -0.5870 nb         1 CFB      -0.217000
     16 C10          3.1020    -0.6930    -0.7830 ca         1 CFB       0.286000
     17 Cl           3.9110    -2.0820    -1.4910 cl         1 CFB      -0.140000
     18 N1           3.8800     0.3760    -0.4940 nb         1 CFB      -0.294000
     19 C6           3.2500     1.4290     0.0480 ca         1 CFB       0.465900
     20 N6           4.0250     2.5080     0.3410 nv         1 CFB      -1.055900
     21 H5          -5.2530     2.0420    -1.8140 ho         1 CFB       0.508000
     22 H5'1        -5.3920     0.3610    -0.1850 h1         1 CFB       0.032200
     23 H5'2        -4.0360     1.4740     0.0560 h1         1 CFB       0.032200
     24 H4          -3.7670    -1.1540    -1.4970 h1         1 CFB       0.107700
     25 H3          -4.3160    -1.2430     1.2410 h1         1 CFB       0.071700
     26 H1          -3.3890    -3.2360     1.2160 ho         1 CFB       0.516000
     27 H2          -1.7540    -1.2260     2.1840 h1         1 CFB       0.093700
     28 H6          -0.8090    -1.3870    -0.0630 h2         1 CFB       0.113700
     29 H8          -1.1070     2.2810     1.1480 h5         1 CFB       0.083800
     30 HN61         4.9290     2.5830    -0.1180 hn         1 CFB       0.511000
     31 HN62         3.5420     3.3800     0.5410 hn         1 CFB       0.511000
@<TRIPOS>BOND
     1     1     2 1   
     2     1    21 1   
     3     2     3 1   
     4     2    22 1   
     5     2    23 1   
     6     3     4 1   
     7     3     5 1   
     8     3    24 1   
     9     4     9 1   
    10     5     6 1   
    11     5     7 1   
    12     5    25 1   
    13     6    26 1   
    14     7     8 1   
    15     7     9 1   
    16     7    27 1   
    17     9    10 1   
    18     9    28 1   
    19    10    11 1   
    20    10    14 1   
    21    11    12 2   
    22    11    29 1   
    23    12    13 1   
    24    13    14 ar  
    25    13    19 ar  
    26    14    15 ar  
    27    15    16 ar  
    28    16    17 1   
    29    16    18 ar  
    30    18    19 ar  
    31    19    20 1   
    32    20    30 1   
    33    20    31 1   
@<TRIPOS>SUBSTRUCTURE
     1 CFB         1 TEMP              0 ****  ****    0 ROOT
