@<TRIPOS>MOLECULE
CFB
   31    33     1     0     0
SMALL
abcg2


@<TRIPOS>ATOM
      1 O5          -4.2690     1.8050    -1.0590 oh         1 CFB      -0.705000
      2 C5          -4.1380     0.9420     0.0430 c3         1 CFB       0.140600
      3 C4          -3.5990    -0.3830    -0.4610 c5         1 CFB       0.167300
      4 O4          -2.3770    -0.2150    -1.1820 os         1 CFB      -0.426000
      5 C3          -3.2690    -1.3660     0.6580 c5         1 CFB       0.113300
      6 O3          -3.3770    -2.6620     0.1290 oh         1 CFB      -0.701000
      7 C2          -1.8030    -1.0520     0.9450 c5         1 CFB       0.107300
      8 F           -1.6970     0.0300     1.8020 f          1 CFB      -0.245000
      9 C1          -1.2830    -0.6670    -0.4460 c5         1 CFB       0.298300
     10 N9          -0.2870     0.3790    -0.3910 na         1 CFB      -0.288300
     11 C8          -0.4870     1.7320    -0.4710 cc         1 CFB       0.432700
     12 N7           0.6040     2.4200    -0.3090 nd         1 CFB      -0.556100
     13 C7           1.5750     1.4780    -0.0980 ca         1 CFB      -0.096600
     14 C9           1.0370     0.2030    -0.1420 ca         1 CFB       0.132500
     15 N3           1.6940    -0.9460     0.0270 nb         1 CFB      -0.217000
     16 C10          2.9670    -0.7240     0.2400 ca         1 CFB       0.286000
     17 CL           3.9360    -2.1480     0.4700 cl         1 CFB      -0.140000
     18 N1           3.6330     0.4100     0.3080 nb         1 CFB      -0.294000
     19 C6           2.9600     1.5580     0.1420 ca         1 CFB       0.465900
     20 N6           3.6180     2.7090     0.2150 nv         1 CFB      -1.055900
     21 H5          -4.6010     2.6490    -0.7410 ho         1 CFB       0.508000
     22 H5'1        -5.1040     0.7410     0.5240 h1         1 CFB       0.032200
     23 H5'2        -3.4830     1.3670     0.8120 h1         1 CFB       0.032200
     24 H4          -4.3270    -0.8220    -1.1490 h1         1 CFB       0.107700
     25 H3          -3.8980    -1.2230     1.5450 h1         1 CFB       0.071700
     26 H1          -3.1710    -3.2990     0.8210 ho         1 CFB       0.516000
     27 H2          -1.2510    -1.8850     1.3830 h1         1 CFB       0.093700
     28 H6          -0.8210    -1.5350    -0.9260 h2         1 CFB       0.113700
     29 H8          -1.4590     2.1500    -0.6820 h5         1 CFB       0.083800
     30 HN61         4.6130     2.7210     0.3610 hn         1 CFB       0.511000
     31 HN62         3.1470     3.5860     0.0740 hn         1 CFB       0.511000
@<TRIPOS>BOND
     1     1     2 1   
     2     1    21 1   
     3     2     3 1   
     4     2    22 1   
     5     2    23 1   
     6     3     4 1   
     7     3     5 1   
     8     3    24 1   
     9     4     9 1   
    10     5     6 1   
    11     5     7 1   
    12     5    25 1   
    13     6    26 1   
    14     7     8 1   
    15     7     9 1   
    16     7    27 1   
    17     9    10 1   
    18     9    28 1   
    19    10    11 1   
    20    10    14 1   
    21    11    12 2   
    22    11    29 1   
    23    12    13 1   
    24    13    14 ar  
    25    13    19 ar  
    26    14    15 ar  
    27    15    16 ar  
    28    16    17 1   
    29    16    18 ar  
    30    18    19 ar  
    31    19    20 1   
    32    20    30 1   
    33    20    31 1   
@<TRIPOS>SUBSTRUCTURE
     1 CFB         1 TEMP              0 ****  ****    0 ROOT
