@<TRIPOS>MOLECULE
CFD
   25    24     1     0     0
SMALL
No Charge or Current Charge


@<TRIPOS>ATOM
      1 N            2.5930    -1.0400    -1.0360 n8         1 CFD      -0.982200
      2 CA           2.1720     0.2450    -0.4580 c3         1 CFD       0.189700
      3 C           -2.4470    -0.6900    -0.2260 c          1 CFD       0.583900
      4 O           -2.8450    -1.4860     0.6180 o          1 CFD      -0.516100
      5 CB2          3.2650     0.7830     0.4880 c3         1 CFD      -0.126100
      6 CB1          0.7880     0.1220     0.1850 c2         1 CFD      -0.078400
      7 CG1         -0.3040     0.6630    -0.3940 c2         1 CFD      -0.233200
      8 CG2          0.7660    -0.6620     1.4970 c3         1 CFD      -0.062900
      9 CD          -1.7420     0.6370     0.1210 c3         1 CFD      -0.144500
     10 CE          -2.5520     1.8400    -0.4140 c3         1 CFD      -0.081100
     11 HN           3.5540    -0.9470    -1.3840 hn         1 CFD       0.391000
     12 HA           2.1000     0.9620    -1.2890 h1         1 CFD       0.059700
     13 H1G1        -0.1880     1.1940    -1.3420 ha         1 CFD       0.172000
     14 HD          -1.7380     0.7160     1.2150 hc         1 CFD       0.077700
     15 HNA          2.6740    -1.7260    -0.2790 hn         1 CFD       0.391000
     16 HB2          4.1930     0.9750    -0.0630 hc         1 CFD       0.039033
     17 HB2A         2.9430     1.7280     0.9410 hc         1 CFD       0.039033
     18 HB2B         3.4890     0.0740     1.2940 hc         1 CFD       0.039033
     19 HG2          1.2800    -0.1150     2.2960 hc         1 CFD       0.046700
     20 HG2A        -0.2480    -0.8660     1.8530 hc         1 CFD       0.046700
     21 HG2B         1.2580    -1.6360     1.3890 hc         1 CFD       0.046700
     22 HE          -2.0710     2.7850    -0.1320 hc         1 CFD       0.039700
     23 HEA         -2.6290     1.8070    -1.5080 hc         1 CFD       0.039700
     24 HEB         -3.5670     1.8390     0.0000 hc         1 CFD       0.039700
     25 H           -2.5790    -0.8920    -1.3120 h4         1 CFD      -0.015800
@<TRIPOS>BOND
     1     1     2 1   
     2     1    11 1   
     3     1    15 1   
     4     2     5 1   
     5     2     6 1   
     6     2    12 1   
     7     3     4 2   
     8     3     9 1   
     9     3    25 1   
    10     5    16 1   
    11     5    17 1   
    12     5    18 1   
    13     6     7 2   
    14     6     8 1   
    15     7     9 1   
    16     7    13 1   
    17     8    19 1   
    18     8    20 1   
    19     8    21 1   
    20     9    10 1   
    21     9    14 1   
    22    10    22 1   
    23    10    23 1   
    24    10    24 1   
@<TRIPOS>SUBSTRUCTURE
     1 CFD         1 TEMP              0 ****  ****    0 ROOT
