@<TRIPOS>MOLECULE
CFD
   25    24     1     0     0
SMALL
abcg2


@<TRIPOS>ATOM
      1 N            2.6680    -1.2060    -0.7340 n8         1 CFD      -0.982200
      2 CA           2.1310     0.1270    -0.4660 c3         1 CFD       0.189700
      3 C           -2.3130    -0.6060    -0.2900 c          1 CFD       0.583900
      4 O           -2.6390    -1.5370     0.4030 o          1 CFD      -0.516100
      5 CB2          3.0680     1.0170     0.3540 c3         1 CFD      -0.126100
      6 CB1          0.7720     0.0140     0.1900 c2         1 CFD      -0.078400
      7 CG1         -0.2690     0.6690    -0.3290 c2         1 CFD      -0.233200
      8 CG2          0.6900    -0.8470     1.4130 c3         1 CFD      -0.062900
      9 CD          -1.6820     0.6700     0.2010 c3         1 CFD      -0.144500
     10 CE          -2.4660     1.8740    -0.3160 c3         1 CFD      -0.081100
     11 HN           3.5230    -1.1060    -1.2690 hn         1 CFD       0.391000
     12 HA           1.9870     0.6070    -1.4390 h1         1 CFD       0.059700
     13 H1G1        -0.1140     1.2400    -1.2420 ha         1 CFD       0.172000
     14 HD          -1.6960     0.6610     1.2940 hc         1 CFD       0.077700
     15 HNA          2.9550    -1.6410     0.1360 hn         1 CFD       0.391000
     16 HB2          4.0170     1.1480    -0.1680 hc         1 CFD       0.039033
     17 HB2A         2.6380     2.0060     0.5200 hc         1 CFD       0.039033
     18 HB2B         3.2880     0.5770     1.3290 hc         1 CFD       0.039033
     19 HG2          1.5490    -0.6950     2.0690 hc         1 CFD       0.046700
     20 HG2A        -0.2080    -0.6710     2.0010 hc         1 CFD       0.046700
     21 HG2B         0.6910    -1.9040     1.1360 hc         1 CFD       0.046700
     22 HE          -1.9990     2.8000     0.0200 hc         1 CFD       0.039700
     23 HEA         -2.4890     1.8910    -1.4070 hc         1 CFD       0.039700
     24 HEB         -3.4950     1.8660     0.0430 hc         1 CFD       0.039700
     25 H           -2.4410    -0.6450    -1.3890 h4         1 CFD      -0.015800
@<TRIPOS>BOND
     1     1     2 1   
     2     1    11 1   
     3     1    15 1   
     4     2     5 1   
     5     2     6 1   
     6     2    12 1   
     7     3     4 2   
     8     3     9 1   
     9     3    25 1   
    10     5    16 1   
    11     5    17 1   
    12     5    18 1   
    13     6     7 2   
    14     6     8 1   
    15     7     9 1   
    16     7    13 1   
    17     8    19 1   
    18     8    20 1   
    19     8    21 1   
    20     9    10 1   
    21     9    14 1   
    22    10    22 1   
    23    10    23 1   
    24    10    24 1   
@<TRIPOS>SUBSTRUCTURE
     1 CFD         1 TEMP              0 ****  ****    0 ROOT
