@<TRIPOS>MOLECULE
CFE
   36    38     1     0     0
SMALL
No Charge or Current Charge


@<TRIPOS>ATOM
      1 N1         -12.2850    -4.7000   -16.8390 nc         1 CFE      -0.673000
      2 C2         -13.4520    -4.7850   -17.4620 cd         1 CFE       0.407400
      3 N3         -14.5000    -4.6610   -16.5630 na         1 CFE      -0.195500
      4 N4         -14.7010    -4.3650   -14.1420 nf         1 CFE      -0.681100
      5 C5         -14.2750    -4.4700   -12.9110 c2         1 CFE       0.690100
      6 N6         -12.9600    -4.5840   -12.5180 nu         1 CFE      -0.920400
      7 C7         -11.8740    -3.8130   -13.1480 c3         1 CFE       0.228800
      8 C8         -11.4420    -4.3890   -14.5220 c3         1 CFE       0.150000
      9 O8         -10.7660    -5.6570   -14.3710 oh         1 CFE      -0.666000
     10 C9         -12.5810    -4.5180   -15.5130 cc         1 CFE       0.134300
     11 C10        -13.9500    -4.5080   -15.3040 cd         1 CFE       0.098400
     12 C1S        -15.9290    -4.6880   -16.8820 c5         1 CFE       0.311300
     13 C2S        -16.6120    -3.2760   -16.9570 c5         1 CFE       0.139300
     14 O2S        -18.0080    -3.2760   -16.6130 oh         1 CFE      -0.707000
     15 C3S        -16.4640    -2.9720   -18.4730 c5         1 CFE       0.094300
     16 O3S        -17.3730    -1.9310   -18.8770 oh         1 CFE      -0.718000
     17 C4S        -16.8180    -4.3770   -19.0550 c5         1 CFE       0.132300
     18 O4S        -16.1120    -5.3010   -18.1890 os         1 CFE      -0.436000
     19 C5S        -16.4070    -4.5920   -20.5380 c3         1 CFE       0.163600
     20 O5S        -16.9230    -5.8340   -21.0510 oh         1 CFE      -0.706000
     21 H2         -13.6080    -4.9230   -18.5260 h5         1 CFE       0.061100
     22 H5         -14.9630    -4.4450   -12.0610 h5         1 CFE       0.031800
     23 HN6        -12.8430    -4.7940   -11.5280 hn         1 CFE       0.483000
     24 H7         -12.1890    -2.7690   -13.2850 h1         1 CFE       0.052700
     25 H7A        -10.9950    -3.7990   -12.4890 h1         1 CFE       0.052700
     26 H8         -10.7350    -3.6640   -14.9470 h1         1 CFE       0.057700
     27 HO8        -10.7370    -6.0460   -15.2740 ho         1 CFE       0.456000
     28 H1S        -16.4010    -5.2970   -16.1010 h2         1 CFE       0.128700
     29 H2S        -16.0670    -2.5400   -16.3470 h1         1 CFE       0.077700
     30 HO2S       -18.3930    -2.6450   -17.2730 ho         1 CFE       0.528000
     31 H3S        -15.4250    -2.7000   -18.7110 h1         1 CFE       0.054700
     32 HO3S       -17.0180    -1.5230   -19.7040 ho         1 CFE       0.519000
     33 H4S        -17.8960    -4.5670   -18.9640 h1         1 CFE       0.091700
     34 H5S        -16.7950    -3.7550   -21.1340 h1         1 CFE       0.025700
     35 H5SA       -15.3110    -4.5700   -20.6110 h1         1 CFE       0.025700
     36 HO5S       -16.5830    -5.9300   -21.9710 ho         1 CFE       0.505000
@<TRIPOS>BOND
     1     1     2 2   
     2     1    10 1   
     3     2     3 1   
     4     2    21 1   
     5     3    11 1   
     6     3    12 1   
     7     4     5 2   
     8     4    11 1   
     9     5     6 1   
    10     5    22 1   
    11     6     7 1   
    12     6    23 1   
    13     7     8 1   
    14     7    24 1   
    15     7    25 1   
    16     8     9 1   
    17     8    10 1   
    18     8    26 1   
    19     9    27 1   
    20    10    11 2   
    21    12    13 1   
    22    12    18 1   
    23    12    28 1   
    24    13    14 1   
    25    13    15 1   
    26    13    29 1   
    27    14    30 1   
    28    15    16 1   
    29    15    17 1   
    30    15    31 1   
    31    16    32 1   
    32    17    18 1   
    33    17    19 1   
    34    17    33 1   
    35    19    20 1   
    36    19    34 1   
    37    19    35 1   
    38    20    36 1   
@<TRIPOS>SUBSTRUCTURE
     1 CFE         1 TEMP              0 ****  ****    0 ROOT
