@<TRIPOS>MOLECULE
CFE
   36    38     1     0     0
SMALL
abcg2


@<TRIPOS>ATOM
      1 N1         -12.3070    -4.7710   -16.9570 nc         1 CFE      -0.673000
      2 C2         -13.4810    -4.8360   -17.5500 cd         1 CFE       0.407400
      3 N3         -14.4990    -4.7660   -16.6460 na         1 CFE      -0.195500
      4 N4         -14.7500    -4.5890   -14.2870 nf         1 CFE      -0.681100
      5 C5         -14.2930    -4.4360   -13.0870 c2         1 CFE       0.690100
      6 N6         -13.0410    -4.1890   -12.6530 nu         1 CFE      -0.920400
      7 C7         -11.9190    -3.6530   -13.4180 c3         1 CFE       0.228800
      8 C8         -11.4880    -4.5270   -14.5910 c3         1 CFE       0.150000
      9 O8         -11.0650    -5.7910   -14.0440 oh         1 CFE      -0.666000
     10 C9         -12.5640    -4.6530   -15.6060 cc         1 CFE       0.134300
     11 C10        -13.9310    -4.6410   -15.3860 cd         1 CFE       0.098400
     12 C1S        -15.9350    -4.7730   -16.9090 c5         1 CFE       0.311300
     13 C2S        -16.5380    -3.3670   -16.9000 c5         1 CFE       0.139300
     14 O2S        -17.8720    -3.4730   -16.4250 oh         1 CFE      -0.707000
     15 C3S        -16.5120    -2.9940   -18.3840 c5         1 CFE       0.094300
     16 O3S        -17.4900    -2.0050   -18.6490 oh         1 CFE      -0.718000
     17 C4S        -16.7910    -4.3420   -19.0570 c5         1 CFE       0.132300
     18 O4S        -16.1660    -5.3160   -18.1950 os         1 CFE      -0.436000
     19 C5S        -16.2470    -4.4470   -20.4570 c3         1 CFE       0.163600
     20 O5S        -16.6720    -5.6820   -21.0310 oh         1 CFE      -0.706000
     21 H2         -13.6540    -4.9440   -18.6060 h5         1 CFE       0.061100
     22 H5         -15.0080    -4.5380   -12.2750 h5         1 CFE       0.031800
     23 HN6        -12.9430    -4.1380   -11.6510 hn         1 CFE       0.483000
     24 H7         -12.1540    -2.6560   -13.7980 h1         1 CFE       0.052700
     25 H7A        -11.0890    -3.5600   -12.7200 h1         1 CFE       0.052700
     26 H8         -10.6290    -4.0380   -15.0660 h1         1 CFE       0.057700
     27 HO8        -10.9050    -6.3920   -14.7830 ho         1 CFE       0.456000
     28 H1S        -16.4050    -5.3900   -16.1440 h2         1 CFE       0.128700
     29 H2S        -15.9550    -2.6810   -16.2840 h1         1 CFE       0.077700
     30 HO2S       -18.3560    -2.6990   -16.7470 ho         1 CFE       0.528000
     31 H3S        -15.5140    -2.6360   -18.6510 h1         1 CFE       0.054700
     32 HO3S       -17.2400    -1.5100   -19.4380 ho         1 CFE       0.519000
     33 H4S        -17.8710    -4.5190   -19.0680 h1         1 CFE       0.091700
     34 H5S        -16.6330    -3.5970   -21.0320 h1         1 CFE       0.025700
     35 H5SA       -15.1540    -4.3800   -20.4330 h1         1 CFE       0.025700
     36 HO5S       -16.3180    -5.7380   -21.9270 ho         1 CFE       0.505000
@<TRIPOS>BOND
     1     1     2 2   
     2     1    10 1   
     3     2     3 1   
     4     2    21 1   
     5     3    11 1   
     6     3    12 1   
     7     4     5 2   
     8     4    11 1   
     9     5     6 1   
    10     5    22 1   
    11     6     7 1   
    12     6    23 1   
    13     7     8 1   
    14     7    24 1   
    15     7    25 1   
    16     8     9 1   
    17     8    10 1   
    18     8    26 1   
    19     9    27 1   
    20    10    11 2   
    21    12    13 1   
    22    12    18 1   
    23    12    28 1   
    24    13    14 1   
    25    13    15 1   
    26    13    29 1   
    27    14    30 1   
    28    15    16 1   
    29    15    17 1   
    30    15    31 1   
    31    16    32 1   
    32    17    18 1   
    33    17    19 1   
    34    17    33 1   
    35    19    20 1   
    36    19    34 1   
    37    19    35 1   
    38    20    36 1   
@<TRIPOS>SUBSTRUCTURE
     1 CFE         1 TEMP              0 ****  ****    0 ROOT
