@<TRIPOS>MOLECULE
CFF
   24    25     1     0     0
SMALL
No Charge or Current Charge


@<TRIPOS>ATOM
      1 N1           1.0980     0.0150    -1.3290 n          1 CFF      -0.375400
      2 C2          -0.2130     0.0680    -1.8390 c          1 CFF       0.628000
      3 C10          2.2250     0.0230    -2.3010 c3         1 CFF       0.084300
      4 C6           1.4030    -0.0200     0.0390 c          1 CFF       0.631600
      5 N3          -1.2850     0.0520    -0.9300 n          1 CFF      -0.360300
      6 O11         -0.4180     0.1290    -3.0450 o          1 CFF      -0.557000
      7 C12         -2.6700     0.1010    -1.4640 c3         1 CFF       0.101300
      8 C4          -1.0320     0.0120     0.4200 cc         1 CFF       0.431900
      9 C5           0.2250    -0.0220     0.9080 cd         1 CFF      -0.352600
     10 N9          -1.9690     0.0090     1.4070 nc         1 CFF      -0.701000
     11 O13          2.5450    -0.0420     0.4750 o          1 CFF      -0.537000
     12 N7           0.0820    -0.0510     2.2880 na         1 CFF      -0.111500
     13 C8          -1.2840    -0.0310     2.5470 cd         1 CFF       0.446400
     14 C14          1.1580    -0.0930     3.2900 c3         1 CFF       0.061900
     15 H101         1.9770    -0.5830    -3.1820 h1         1 CFF       0.058033
     16 H102         2.4250     1.0540    -2.6220 h1         1 CFF       0.058033
     17 H103         3.1390    -0.3950    -1.8600 h1         1 CFF       0.058033
     18 H121        -2.7880    -0.6390    -2.2660 h1         1 CFF       0.059033
     19 H122        -3.4080    -0.1210    -0.6840 h1         1 CFF       0.059033
     20 H123        -2.8730     1.1010    -1.8680 h1         1 CFF       0.059033
     21 H81         -1.6860    -0.0460     3.5530 h5         1 CFF       0.062100
     22 H141         1.7660    -0.9930     3.1390 h1         1 CFF       0.064700
     23 H142         1.7930     0.7950     3.1840 h1         1 CFF       0.064700
     24 H143         0.7310    -0.1120     4.3010 h1         1 CFF       0.064700
@<TRIPOS>BOND
     1     1     2 1   
     2     1     3 1   
     3     1     4 1   
     4     2     5 1   
     5     2     6 2   
     6     3    15 1   
     7     3    16 1   
     8     3    17 1   
     9     4     9 1   
    10     4    11 2   
    11     5     7 1   
    12     5     8 1   
    13     7    18 1   
    14     7    19 1   
    15     7    20 1   
    16     8     9 2   
    17     8    10 1   
    18     9    12 1   
    19    10    13 2   
    20    12    13 1   
    21    12    14 1   
    22    13    21 1   
    23    14    22 1   
    24    14    23 1   
    25    14    24 1   
@<TRIPOS>SUBSTRUCTURE
     1 CFF         1 TEMP              0 ****  ****    0 ROOT
