@<TRIPOS>MOLECULE
CFF
   24    25     1     0     0
SMALL
bcc


@<TRIPOS>ATOM
      1 N1           1.0620    -0.0220    -1.3100 n          1 CFF      -0.509400
      2 C2          -0.2240    -0.0010    -1.8510 c          1 CFF       0.837500
      3 C10          2.1900    -0.0450    -2.2340 c3         1 CFF       0.084300
      4 C6           1.4010    -0.0180     0.0470 c          1 CFF       0.774100
      5 N3          -1.2710     0.0180    -0.9640 n          1 CFF      -0.427300
      6 O11         -0.4060    -0.0020    -3.0540 o          1 CFF      -0.632500
      7 C12         -2.6490     0.0440    -1.4250 c3         1 CFF       0.101300
      8 C4          -1.0220     0.0250     0.3780 cc         1 CFF       0.497200
      9 C5           0.2510     0.0090     0.8820 cd         1 CFF      -0.367200
     10 N9          -1.9430     0.0480     1.3550 nc         1 CFF      -0.701000
     11 O13          2.5640    -0.0350     0.4080 o          1 CFF      -0.612500
     12 N7           0.0950     0.0220     2.2480 na         1 CFF      -0.132900
     13 C8          -1.2250     0.0460     2.4660 cd         1 CFF       0.446400
     14 C14          1.1370     0.0170     3.2520 c3         1 CFF       0.032600
     15 H101         1.8220    -0.0480    -3.2510 h1         1 CFF       0.058033
     16 H102         2.8170     0.8330    -2.0900 h1         1 CFF       0.058033
     17 H103         2.7930    -0.9370    -2.0750 h1         1 CFF       0.058033
     18 H121        -2.6700    -0.0250    -2.5060 h1         1 CFF       0.059033
     19 H122        -3.1990    -0.7950    -1.0040 h1         1 CFF       0.059033
     20 H123        -3.1310     0.9710    -1.1190 h1         1 CFF       0.059033
     21 H81         -1.6360     0.0600     3.4640 h5         1 CFF       0.062100
     22 H141         1.7490    -0.8770     3.1600 h1         1 CFF       0.064700
     23 H142         1.7670     0.8960     3.1500 h1         1 CFF       0.064700
     24 H143         0.6710     0.0270     4.2320 h1         1 CFF       0.064700
@<TRIPOS>BOND
     1     1     2 1   
     2     1     3 1   
     3     1     4 1   
     4     2     5 1   
     5     2     6 2   
     6     3    15 1   
     7     3    16 1   
     8     3    17 1   
     9     4     9 1   
    10     4    11 2   
    11     5     7 1   
    12     5     8 1   
    13     7    18 1   
    14     7    19 1   
    15     7    20 1   
    16     8     9 2   
    17     8    10 1   
    18     9    12 1   
    19    10    13 2   
    20    12    13 1   
    21    12    14 1   
    22    13    21 1   
    23    14    22 1   
    24    14    23 1   
    25    14    24 1   
@<TRIPOS>SUBSTRUCTURE
     1 CFF         1 TEMP              0 ****  ****    0 ROOT
