@<TRIPOS>MOLECULE
CFG
   59    61     1     0     0
SMALL
No Charge or Current Charge


@<TRIPOS>ATOM
      1 C4         -12.1110    24.8930   -30.7740 ca         1 CFG      -0.172000
      2 C5         -12.7440    23.9000   -30.0070 ca         1 CFG      -0.051500
      3 C6         -13.6770    24.2550   -29.0140 ca         1 CFG      -0.161300
      4 C7         -13.9620    25.6210   -28.7950 ca         1 CFG      -0.051500
      5 C8         -13.3270    26.6120   -29.5640 ca         1 CFG      -0.172000
      6 C15        -11.3420    21.3510   -25.1890 cc         1 CFG      -0.351200
      7 C20        -15.8240    23.4840   -27.8050 c          1 CFG       0.615100
      8 C24        -18.5000    24.3410   -30.2800 cc         1 CFG      -0.312600
      9 C26        -20.6920    24.7510   -29.3400 cd         1 CFG      -0.436000
     10 C28        -18.8920    24.0720   -27.8660 cc         1 CFG      -0.312600
     11 C1         -11.9670    28.5930   -31.2060 c3         1 CFG       0.147900
     12 C3         -12.3970    26.2490   -30.5610 ca         1 CFG       0.156100
     13 C9         -14.3500    23.1460   -28.1890 c3         1 CFG       0.095000
     14 N10        -13.5010    22.6920   -27.0420 n          1 CFG      -0.379800
     15 C11        -12.9020    23.7520   -26.1960 c3         1 CFG       0.097300
     16 C12        -13.5310    21.3220   -26.6550 c          1 CFG       0.622300
     17 O13        -14.3830    20.5760   -27.1270 o          1 CFG      -0.567100
     18 C14        -12.5060    20.7950   -25.6770 cd         1 CFG       0.043900
     19 C16        -10.7050    20.4210   -24.3000 c          1 CFG       0.553200
     20 O17         -9.7100    20.5840   -23.6150 o          1 CFG      -0.523000
     21 N18        -11.4770    19.2970   -24.3680 ns         1 CFG      -0.374400
     22 O19        -12.6500    19.5180   -25.1840 os         1 CFG      -0.072200
     23 O21        -16.2010    23.5560   -26.6420 o          1 CFG      -0.577100
     24 N22        -16.6390    23.7250   -28.8980 ns         1 CFG      -0.397500
     25 C23        -17.9860    24.0440   -28.9790 cc         1 CFG       0.265200
     26 C25        -19.8230    24.6710   -30.4820 cd         1 CFG      -0.114000
     27 C27        -20.2220    24.3980   -28.0280 cd         1 CFG      -0.114000
     28 C30        -23.4600    24.2060   -28.3350 c3         1 CFG      -0.111100
     29 C31        -22.7590    26.8380   -29.4430 c3         1 CFG      -0.111100
     30 C32        -22.9850    24.5330   -31.2550 c3         1 CFG      -0.111100
     31 H1         -11.3930    24.6090   -31.5390 ha         1 CFG       0.128500
     32 H2         -12.5040    22.8530   -30.1840 ha         1 CFG       0.126000
     33 H3         -14.6700    25.9260   -28.0270 ha         1 CFG       0.126000
     34 H4         -13.5690    27.6530   -29.3710 ha         1 CFG       0.128500
     35 H5         -10.8920    22.3140   -25.3860 ha         1 CFG       0.235000
     36 H6         -17.8220    24.2990   -31.1280 ha         1 CFG       0.195000
     37 H7         -18.5400    23.8190   -26.8750 ha         1 CFG       0.195000
     38 H8         -11.3500    29.1470   -31.9250 h1         1 CFG       0.046033
     39 H9         -13.0180    28.8430   -31.3970 h1         1 CFG       0.046033
     40 H10        -11.7000    28.9320   -30.1970 h1         1 CFG       0.046033
     41 H11        -14.4440    22.2940   -28.8750 h1         1 CFG       0.065700
     42 H12        -12.9020    23.4510   -25.1410 h1         1 CFG       0.051700
     43 H13        -11.8800    23.9650   -26.5320 h1         1 CFG       0.051700
     44 H14        -13.4920    24.6730   -26.2680 h1         1 CFG       0.051700
     45 H15        -11.5880    18.6960   -23.5580 hn         1 CFG       0.366500
     46 H16        -16.1440    23.6780   -29.7780 hn         1 CFG       0.317500
     47 H17        -20.1840    24.8810   -31.4880 ha         1 CFG       0.173500
     48 H18        -20.8890    24.3970   -27.1680 ha         1 CFG       0.173500
     49 H19        -23.2550    24.6650   -27.3610 h1         1 CFG       0.055811
     50 H20        -24.5210    24.3140   -28.5900 h1         1 CFG       0.055811
     51 H21        -23.1750    23.1470   -28.3290 h1         1 CFG       0.055811
     52 H22        -22.4490    27.1530   -28.4390 h1         1 CFG       0.055811
     53 H23        -22.1610    27.3510   -30.2060 h1         1 CFG       0.055811
     54 H24        -23.8270    27.0370   -29.5940 h1         1 CFG       0.055811
     55 H25        -22.6750    23.4910   -31.3990 h1         1 CFG       0.055811
     56 H26        -24.0750    24.6220   -31.3280 h1         1 CFG       0.055811
     57 H27        -22.5010    25.1840   -31.9930 h1         1 CFG       0.055811
     58 O2         -11.7440    27.1770   -31.3460 os         1 CFG      -0.347100
     59 SI         -22.4780    25.0580   -29.5970 s6         1 CFG       0.197000
@<TRIPOS>BOND
     1     1     2 ar  
     2     1    12 ar  
     3     1    31 1   
     4     2     3 ar  
     5     2    32 1   
     6     3     4 ar  
     7     3    13 1   
     8     4     5 ar  
     9     4    33 1   
    10     5    12 ar  
    11     5    34 1   
    12     6    18 2   
    13     6    19 1   
    14     6    35 1   
    15     7    13 1   
    16     7    23 2   
    17     7    24 1   
    18     8    25 1   
    19     8    26 2   
    20     8    36 1   
    21     9    26 1   
    22     9    27 1   
    23     9    59 2   
    24    10    25 1   
    25    10    27 2   
    26    10    37 1   
    27    11    38 1   
    28    11    39 1   
    29    11    40 1   
    30    11    58 1   
    31    12    58 1   
    32    13    14 1   
    33    13    41 1   
    34    14    15 1   
    35    14    16 1   
    36    15    42 1   
    37    15    43 1   
    38    15    44 1   
    39    16    17 2   
    40    16    18 1   
    41    18    22 1   
    42    19    20 2   
    43    19    21 1   
    44    21    22 1   
    45    21    45 1   
    46    24    25 2   
    47    24    46 1   
    48    26    47 1   
    49    27    48 1   
    50    28    49 1   
    51    28    50 1   
    52    28    51 1   
    53    28    59 1   
    54    29    52 1   
    55    29    53 1   
    56    29    54 1   
    57    29    59 1   
    58    30    55 1   
    59    30    56 1   
    60    30    57 1   
    61    30    59 1   
@<TRIPOS>SUBSTRUCTURE
     1 CFG         1 TEMP              0 ****  ****    0 ROOT
