@<TRIPOS>MOLECULE
CFG
   59    61     1     0     0
SMALL
abcg2


@<TRIPOS>ATOM
      1 C4         -12.3710    25.7260   -30.9920 ca         1 CFG      -0.172000
      2 C5         -12.8980    24.6040   -30.3760 ca         1 CFG      -0.051500
      3 C6         -13.4580    24.6790   -29.1000 ca         1 CFG      -0.161300
      4 C7         -13.4800    25.9140   -28.4570 ca         1 CFG      -0.051500
      5 C8         -12.9500    27.0490   -29.0580 ca         1 CFG      -0.172000
      6 C15        -11.9690    20.4430   -25.6070 cc         1 CFG      -0.351200
      7 C20        -15.5220    23.7660   -28.0920 c          1 CFG       0.615100
      8 C24        -18.4810    23.3990   -30.2790 cc         1 CFG      -0.312600
      9 C26        -20.5720    24.2550   -29.3730 cd         1 CFG      -0.436000
     10 C28        -18.4980    24.3860   -28.0790 cc         1 CFG      -0.312600
     11 C1         -11.9230    29.3050   -30.4160 c3         1 CFG       0.147900
     12 C3         -12.3880    26.9590   -30.3330 ca         1 CFG       0.156100
     13 C9         -14.0720    23.4360   -28.4900 c3         1 CFG       0.095000
     14 N10        -13.3420    22.9040   -27.3240 n          1 CFG      -0.379800
     15 C11        -12.0460    23.4700   -26.9540 c3         1 CFG       0.097300
     16 C12        -13.8690    21.7920   -26.7870 c          1 CFG       0.622300
     17 O13        -14.9360    21.3000   -27.1560 o          1 CFG      -0.567100
     18 C14        -13.1400    21.0980   -25.6750 cd         1 CFG       0.043900
     19 C16        -11.9030    19.8230   -24.2900 c          1 CFG       0.553200
     20 O17        -11.0140    19.1810   -23.7360 o          1 CFG      -0.523000
     21 N18        -13.1310    20.1040   -23.7360 ns         1 CFG      -0.374400
     22 O19        -13.8800    20.9480   -24.5460 os         1 CFG      -0.072200
     23 O21        -15.7880    24.2910   -27.0210 o          1 CFG      -0.577100
     24 N22        -16.4160    23.5040   -29.0770 ns         1 CFG      -0.397500
     25 C23        -17.7930    23.7780   -29.1220 cc         1 CFG       0.265200
     26 C25        -19.8410    23.6390   -30.3970 cd         1 CFG      -0.114000
     27 C27        -19.8610    24.6180   -28.2220 cd         1 CFG      -0.114000
     28 C30        -23.2850    24.1080   -27.9600 c3         1 CFG      -0.111100
     29 C31        -22.6230    26.4900   -29.7840 c3         1 CFG      -0.111100
     30 C32        -23.1160    23.7180   -31.0090 c3         1 CFG      -0.111100
     31 H1         -11.9330    25.6660   -31.9810 ha         1 CFG       0.128500
     32 H2         -12.8710    23.6520   -30.8920 ha         1 CFG       0.126000
     33 H3         -13.9310    26.0020   -27.4780 ha         1 CFG       0.126000
     34 H4         -12.9780    27.9900   -28.5290 ha         1 CFG       0.128500
     35 H5         -11.1940    20.4080   -26.3540 ha         1 CFG       0.235000
     36 H6         -17.9400    22.9210   -31.0870 ha         1 CFG       0.195000
     37 H7         -17.9850    24.6690   -27.1760 ha         1 CFG       0.195000
     38 H8         -11.5150    29.9900   -31.1550 h1         1 CFG       0.046033
     39 H9         -12.9590    29.5720   -30.1990 h1         1 CFG       0.046033
     40 H10        -11.3310    29.3590   -29.4990 h1         1 CFG       0.046033
     41 H11        -14.0760    22.6590   -29.2560 h1         1 CFG       0.065700
     42 H12        -11.6440    22.9300   -26.1060 h1         1 CFG       0.051700
     43 H13        -11.3490    23.3940   -27.7880 h1         1 CFG       0.051700
     44 H14        -12.1570    24.5150   -26.6790 h1         1 CFG       0.051700
     45 H15        -13.4040    20.1310   -22.7640 hn         1 CFG       0.366500
     46 H16        -16.0560    23.0030   -29.8760 hn         1 CFG       0.317500
     47 H17        -20.3370    23.3380   -31.3120 ha         1 CFG       0.173500
     48 H18        -20.3800    25.0920   -27.3960 ha         1 CFG       0.173500
     49 H19        -22.8680    24.6240   -27.0910 h1         1 CFG       0.055811
     50 H20        -24.3510    24.3430   -28.0100 h1         1 CFG       0.055811
     51 H21        -23.1740    23.0340   -27.7970 h1         1 CFG       0.055811
     52 H22        -22.2270    27.0450   -28.9290 h1         1 CFG       0.055811
     53 H23        -22.0990    26.8290   -30.6800 h1         1 CFG       0.055811
     54 H24        -23.6800    26.7490   -29.8830 h1         1 CFG       0.055811
     55 H25        -22.9960    22.6380   -30.8940 h1         1 CFG       0.055811
     56 H26        -24.1850    23.9270   -31.0990 h1         1 CFG       0.055811
     57 H27        -22.6340    24.0170   -31.9420 h1         1 CFG       0.055811
     58 O2         -11.8400    28.0050   -31.0020 os         1 CFG      -0.347100
     59 SI         -22.4070    24.6400   -29.5330 s6         1 CFG       0.197000
@<TRIPOS>BOND
     1     1     2 ar  
     2     1    12 ar  
     3     1    31 1   
     4     2     3 ar  
     5     2    32 1   
     6     3     4 ar  
     7     3    13 1   
     8     4     5 ar  
     9     4    33 1   
    10     5    12 ar  
    11     5    34 1   
    12     6    18 2   
    13     6    19 1   
    14     6    35 1   
    15     7    13 1   
    16     7    23 2   
    17     7    24 1   
    18     8    25 1   
    19     8    26 2   
    20     8    36 1   
    21     9    26 1   
    22     9    27 1   
    23     9    59 2   
    24    10    25 1   
    25    10    27 2   
    26    10    37 1   
    27    11    38 1   
    28    11    39 1   
    29    11    40 1   
    30    11    58 1   
    31    12    58 1   
    32    13    14 1   
    33    13    41 1   
    34    14    15 1   
    35    14    16 1   
    36    15    42 1   
    37    15    43 1   
    38    15    44 1   
    39    16    17 2   
    40    16    18 1   
    41    18    22 1   
    42    19    20 2   
    43    19    21 1   
    44    21    22 1   
    45    21    45 1   
    46    24    25 2   
    47    24    46 1   
    48    26    47 1   
    49    27    48 1   
    50    28    49 1   
    51    28    50 1   
    52    28    51 1   
    53    28    59 1   
    54    29    52 1   
    55    29    53 1   
    56    29    54 1   
    57    29    59 1   
    58    30    55 1   
    59    30    56 1   
    60    30    57 1   
    61    30    59 1   
@<TRIPOS>SUBSTRUCTURE
     1 CFG         1 TEMP              0 ****  ****    0 ROOT
