@<TRIPOS>MOLECULE
CFH
   12    11     1     0     0
SMALL
bcc


@<TRIPOS>ATOM
      1 F7          -2.3340     0.5210    -0.5650 f          1 CFH      -0.220800
      2 C1          -1.2790    -0.0820    -0.0150 c3         1 CFH       0.639900
      3 F5          -1.3970     0.0470     1.3110 f          1 CFH      -0.220800
      4 F6          -1.3620    -1.3800    -0.3040 f          1 CFH      -0.220800
      5 C2           0.0100     0.5560    -0.5450 c3         1 CFH       0.017100
      6 O4           0.0290     1.9180    -0.2830 oh         1 CFH      -0.543800
      7 C3           1.2890    -0.1190    -0.0370 c3         1 CFH       0.639900
      8 F10          1.3450    -1.4100    -0.3630 f          1 CFH      -0.220800
      9 F8           2.3520     0.4790    -0.5740 f          1 CFH      -0.220800
     10 F9           1.4140    -0.0310     1.2920 f          1 CFH      -0.220800
     11 H2          -0.0010     0.4320    -1.6330 h1         1 CFH       0.135700
     12 HO4          0.0400     2.0920     0.6660 ho         1 CFH       0.435000
@<TRIPOS>BOND
     1     1     2 1   
     2     2     3 1   
     3     2     4 1   
     4     2     5 1   
     5     5     6 1   
     6     5     7 1   
     7     5    11 1   
     8     6    12 1   
     9     7     8 1   
    10     7     9 1   
    11     7    10 1   
@<TRIPOS>SUBSTRUCTURE
     1 CFH         1 TEMP              0 ****  ****    0 ROOT
