@<TRIPOS>MOLECULE
CFH
   12    11     1     0     0
SMALL
No Charge or Current Charge


@<TRIPOS>ATOM
      1 F7          -2.3930     0.5320    -0.5520 f          1 CFH      -0.099500
      2 C1          -1.3130    -0.0850    -0.0180 c3         1 CFH       0.276000
      3 F5          -1.4070     0.0200     1.3280 f          1 CFH      -0.099500
      4 F6          -1.4010    -1.3960    -0.3400 f          1 CFH      -0.099500
      5 C2           0.0100     0.5550    -0.5570 c3         1 CFH       0.040300
      6 O4           0.0300     1.9860    -0.2890 oh         1 CFH      -0.606000
      7 C3           1.3220    -0.1190    -0.0350 c3         1 CFH       0.276000
      8 F10          1.3720    -1.4320    -0.3570 f          1 CFH      -0.099500
      9 F8           2.4100     0.4700    -0.5830 f          1 CFH      -0.099500
     10 F9           1.4370    -0.0170     1.3100 f          1 CFH      -0.099500
     11 H2           0.0010     0.3940    -1.6440 h1         1 CFH       0.135700
     12 HO4          0.0380     2.1160     0.6870 ho         1 CFH       0.474000
@<TRIPOS>BOND
     1     1     2 1   
     2     2     3 1   
     3     2     4 1   
     4     2     5 1   
     5     5     6 1   
     6     5     7 1   
     7     5    11 1   
     8     6    12 1   
     9     7     8 1   
    10     7     9 1   
    11     7    10 1   
@<TRIPOS>SUBSTRUCTURE
     1 CFH         1 TEMP              0 ****  ****    0 ROOT
