@<TRIPOS>MOLECULE
CFI
   16    16     1     0     0
SMALL
No Charge or Current Charge


@<TRIPOS>ATOM
      1 O01         -3.2030    -0.5110    -0.1000 o          1 CFI      -0.242700
      2 N02         -2.0060    -0.7560    -0.0840 n2         1 CFI       0.223700
      3 N03         -1.1650     0.3280    -0.0470 nh         1 CFI      -0.416700
      4 O04         -1.6980     1.6600    -0.1320 oh         1 CFI      -0.384300
      5 C05          0.2540     0.1270    -0.0480 ca         1 CFI       0.284000
      6 C06          0.8190    -1.1690     0.0510 ca         1 CFI      -0.122000
      7 C07          2.2140    -1.3530     0.0500 ca         1 CFI      -0.091000
      8 C08          3.0700    -0.2460    -0.0480 ca         1 CFI      -0.117000
      9 C09          2.5310     1.0450    -0.1450 ca         1 CFI      -0.091000
     10 C10          1.1360     1.2280    -0.1440 ca         1 CFI      -0.122000
     11 H1          -2.0840     1.7760     0.7670 ho         1 CFI       0.455000
     12 H2           0.1860    -2.0470     0.1320 ha         1 CFI       0.133500
     13 H3           2.6300    -2.3550     0.1270 ha         1 CFI       0.119000
     14 H4           4.1490    -0.3890    -0.0480 ha         1 CFI       0.120000
     15 H5           3.1920     1.9060    -0.2210 ha         1 CFI       0.119000
     16 H6           0.7460     2.2380    -0.2230 ha         1 CFI       0.133500
@<TRIPOS>BOND
     1     1     2 2   
     2     2     3 1   
     3     3     4 1   
     4     3     5 1   
     5     4    11 1   
     6     5     6 ar  
     7     5    10 ar  
     8     6     7 ar  
     9     6    12 1   
    10     7     8 ar  
    11     7    13 1   
    12     8     9 ar  
    13     8    14 1   
    14     9    10 ar  
    15     9    15 1   
    16    10    16 1   
@<TRIPOS>SUBSTRUCTURE
     1 CFI         1 TEMP              0 ****  ****    0 ROOT
