@<TRIPOS>MOLECULE
CFI
   16    16     1     0     0
SMALL
bcc


@<TRIPOS>ATOM
      1 O01         -3.1240    -0.4910    -0.0970 o          1 CFI      -0.242700
      2 N02         -1.9420    -0.7360    -0.0740 n2         1 CFI       0.223700
      3 N03         -1.1400     0.2910    -0.0480 nh         1 CFI      -0.278300
      4 O04         -1.6320     1.5440    -0.1550 oh         1 CFI      -0.345300
      5 C05          0.2600     0.1100    -0.0470 ca         1 CFI       0.145600
      6 C06          0.8020    -1.1720     0.0450 ca         1 CFI      -0.140000
      7 C07          2.1780    -1.3290     0.0450 ca         1 CFI      -0.109000
      8 C08          3.0220    -0.2290    -0.0420 ca         1 CFI      -0.135000
      9 C09          2.4710     1.0390    -0.1310 ca         1 CFI      -0.109000
     10 C10          1.0940     1.2190    -0.1350 ca         1 CFI      -0.140000
     11 H1          -1.8690     1.8380     0.7390 ho         1 CFI       0.416000
     12 H2           0.1640    -2.0390     0.1190 ha         1 CFI       0.151500
     13 H3           2.5900    -2.3270     0.1170 ha         1 CFI       0.137000
     14 H4           4.0950    -0.3610    -0.0420 ha         1 CFI       0.138000
     15 H5           3.1130     1.9070    -0.1990 ha         1 CFI       0.137000
     16 H6           0.6900     2.2180    -0.2080 ha         1 CFI       0.151500
@<TRIPOS>BOND
     1     1     2 2   
     2     2     3 1   
     3     3     4 1   
     4     3     5 1   
     5     4    11 1   
     6     5     6 ar  
     7     5    10 ar  
     8     6     7 ar  
     9     6    12 1   
    10     7     8 ar  
    11     7    13 1   
    12     8     9 ar  
    13     8    14 1   
    14     9    10 ar  
    15     9    15 1   
    16    10    16 1   
@<TRIPOS>SUBSTRUCTURE
     1 CFI         1 TEMP              0 ****  ****    0 ROOT
