@<TRIPOS>MOLECULE
CFJ
   61    63     1     0     0
SMALL
abcg2


@<TRIPOS>ATOM
      1 N3          -7.1260     0.4230     0.5380 n          1 CFJ      -0.301000
      2 C4          -5.7960     0.6820     0.2490 ca         1 CFJ       0.100600
      3 C5          -5.1810     1.8950     0.5760 ca         1 CFJ      -0.144000
      4 C6          -3.8610     2.1130     0.2540 ca         1 CFJ      -0.106000
      5 C7          -3.0890     1.1470    -0.4030 ca         1 CFJ      -0.064000
      6 C13          1.5220     0.8890     0.7660 c3         1 CFJ      -0.098100
      7 C15          4.2220     0.7370    -0.6810 c          1 CFJ       0.610100
      8 C20          8.6330     2.1870     0.8390 ca         1 CFJ      -0.032000
      9 C21          9.1090     0.8970     1.0840 ca         1 CFJ      -0.048000
     10 C22         10.4330     0.7010     1.5610 cg         1 CFJ       0.331000
     11 C24          8.2550    -0.1800     0.8500 ca         1 CFJ       0.179000
     12 C26          6.9670    -0.0020     0.3860 ca         1 CFJ      -0.142000
     13 C28         -5.0250    -0.2860    -0.3900 ca         1 CFJ      -0.190600
     14 C1          -7.7650     1.3550     2.7490 c3         1 CFJ      -0.115100
     15 C2          -7.9400     1.4150     1.2420 c3         1 CFJ       0.104000
     16 N8          -1.7700     1.4930    -0.7080 ns         1 CFJ      -0.145000
     17 C9          -0.7850     0.7230    -1.2360 c          1 CFJ       0.605100
     18 O10         -0.9210    -0.4580    -1.5050 o          1 CFJ      -0.566100
     19 C11          0.5190     1.4490    -1.4780 c3         1 CFJ      -0.159400
     20 C12          1.6890     0.7860    -0.7470 c3         1 CFJ      -0.042700
     21 C14          2.9910     1.4390    -1.2080 c3         1 CFJ      -0.158400
     22 O16          4.3090    -0.4730    -0.6200 o          1 CFJ      -0.556100
     23 N17          5.2290     1.5850    -0.3140 ns         1 CFJ      -0.149000
     24 C18          6.5020     1.2940     0.1440 ca         1 CFJ       0.018000
     25 C19          7.3530     2.3830     0.3770 ca         1 CFJ      -0.183000
     26 N23         11.5090     0.5640     1.9490 n1         1 CFJ      -0.442000
     27 C27         -3.6860    -0.0610    -0.7150 ca         1 CFJ      -0.040000
     28 C29         -5.6190    -1.5760    -0.7370 c          1 CFJ       0.588600
     29 O30         -5.0000    -2.4710    -1.2800 o          1 CFJ      -0.517000
     30 N31         -6.9500    -1.7250    -0.4100 n          1 CFJ      -0.371400
     31 C32         -7.5980    -3.0030    -0.7260 c3         1 CFJ       0.101000
     32 C33         -7.4750    -4.0150     0.3990 c3         1 CFJ      -0.109100
     33 C34         -7.7110    -0.7860     0.2720 c          1 CFJ       0.620000
     34 O35         -8.8530    -1.0350     0.6030 o          1 CFJ      -0.558000
     35 H1          -5.7120     2.6840     1.0870 ha         1 CFJ       0.125000
     36 H2          -3.4170     3.0650     0.5200 ha         1 CFJ       0.112000
     37 H3           0.5980     0.4160     1.1040 hc         1 CFJ       0.041700
     38 H4           2.3390     0.4010     1.2980 hc         1 CFJ       0.041700
     39 H5           1.4940     1.9340     1.0850 hc         1 CFJ       0.041700
     40 H6           9.2780     3.0370     1.0140 ha         1 CFJ       0.130000
     41 H7           6.3390    -0.8620     0.2220 ha         1 CFJ       0.170000
     42 H8          -6.7330     1.5370     3.0480 hc         1 CFJ       0.047367
     43 H9          -8.3870     2.1160     3.2200 hc         1 CFJ       0.047367
     44 H10         -8.0670     0.3840     3.1400 hc         1 CFJ       0.047367
     45 H11         -7.6870     2.4000     0.8540 h1         1 CFJ       0.065700
     46 H12         -8.9780     1.2450     0.9730 h1         1 CFJ       0.065700
     47 H13         -1.5230     2.4480    -0.4990 hn         1 CFJ       0.149000
     48 H14          0.6980     1.4270    -2.5570 hc         1 CFJ       0.059700
     49 H15          0.4500     2.5030    -1.1930 hc         1 CFJ       0.059700
     50 H16          1.7170    -0.2670    -1.0340 hc         1 CFJ       0.098700
     51 H17          2.9960     2.4980    -0.9360 hc         1 CFJ       0.061200
     52 H18          3.0580     1.4040    -2.3010 hc         1 CFJ       0.061200
     53 H19          5.0310     2.5700    -0.4130 hn         1 CFJ       0.152000
     54 H20          7.0030     3.3900     0.1940 ha         1 CFJ       0.118000
     55 H21         -3.1420    -0.8440    -1.2160 ha         1 CFJ       0.175000
     56 H22         -8.6410    -2.8050    -0.9540 h1         1 CFJ       0.069200
     57 H23         -7.1380    -3.3840    -1.6340 h1         1 CFJ       0.069200
     58 H24         -6.4330    -4.2420     0.6210 hc         1 CFJ       0.045367
     59 H25         -7.9540    -3.6600     1.3110 hc         1 CFJ       0.045367
     60 H26         -7.9630    -4.9450     0.1060 hc         1 CFJ       0.045367
     61 CL           8.8160    -1.7810     1.1480 cl         1 CFJ      -0.165000
@<TRIPOS>BOND
     1     1     2 1   
     2     1    15 1   
     3     1    33 1   
     4     2     3 ar  
     5     2    13 ar  
     6     3     4 ar  
     7     3    35 1   
     8     4     5 ar  
     9     4    36 1   
    10     5    16 1   
    11     5    27 ar  
    12     6    20 1   
    13     6    37 1   
    14     6    38 1   
    15     6    39 1   
    16     7    21 1   
    17     7    22 2   
    18     7    23 1   
    19     8     9 ar  
    20     8    25 ar  
    21     8    40 1   
    22     9    10 1   
    23     9    11 ar  
    24    10    26 3   
    25    11    12 ar  
    26    11    61 1   
    27    12    24 ar  
    28    12    41 1   
    29    13    27 ar  
    30    13    28 1   
    31    14    15 1   
    32    14    42 1   
    33    14    43 1   
    34    14    44 1   
    35    15    45 1   
    36    15    46 1   
    37    16    17 1   
    38    16    47 1   
    39    17    18 2   
    40    17    19 1   
    41    19    20 1   
    42    19    48 1   
    43    19    49 1   
    44    20    21 1   
    45    20    50 1   
    46    21    51 1   
    47    21    52 1   
    48    23    24 1   
    49    23    53 1   
    50    24    25 ar  
    51    25    54 1   
    52    27    55 1   
    53    28    29 2   
    54    28    30 1   
    55    30    31 1   
    56    30    33 1   
    57    31    32 1   
    58    31    56 1   
    59    31    57 1   
    60    32    58 1   
    61    32    59 1   
    62    32    60 1   
    63    33    34 2   
@<TRIPOS>SUBSTRUCTURE
     1 CFJ         1 TEMP              0 ****  ****    0 ROOT
