@<TRIPOS>MOLECULE
CFJ
   61    63     1     0     0
SMALL
No Charge or Current Charge


@<TRIPOS>ATOM
      1 N3          -6.9180     0.4090     0.8230 n          1 CFJ      -0.301000
      2 C4          -5.6190     0.7270     0.2890 ca         1 CFJ       0.100600
      3 C5          -4.9840     1.9680     0.5310 ca         1 CFJ      -0.144000
      4 C6          -3.6980     2.2280     0.0350 ca         1 CFJ      -0.106000
      5 C7          -3.0020     1.2540    -0.6960 ca         1 CFJ      -0.064000
      6 C13          1.5490     0.9140     0.0170 c3         1 CFJ      -0.098100
      7 C15          4.2970     0.8750    -1.4230 c          1 CFJ       0.610100
      8 C20          7.7920     1.8480     2.0140 ca         1 CFJ      -0.032000
      9 C21          8.4510     0.6110     1.8870 ca         1 CFJ      -0.048000
     10 C22          9.6150     0.3450     2.6840 cg         1 CFJ       0.331000
     11 C24          7.9550    -0.3470     0.9800 ca         1 CFJ       0.179000
     12 C26          6.8130    -0.0660     0.2090 ca         1 CFJ      -0.142000
     13 C28         -4.9030    -0.2710    -0.3920 ca         1 CFJ      -0.190600
     14 C1          -7.4890     1.6740     2.9350 c3         1 CFJ      -0.115100
     15 C2          -7.7550     1.4820     1.4290 c3         1 CFJ       0.104000
     16 N8          -1.7010     1.5870    -1.1670 ns         1 CFJ      -0.145000
     17 C9          -0.8080     0.9210    -1.9990 c          1 CFJ       0.605100
     18 O10         -1.0440    -0.1480    -2.5490 o          1 CFJ      -0.566100
     19 C11          0.5220     1.6580    -2.2220 c3         1 CFJ      -0.159400
     20 C12          1.7230     0.9610    -1.5230 c3         1 CFJ      -0.042700
     21 C14          3.0630     1.6350    -1.9350 c3         1 CFJ      -0.158400
     22 O16          4.6290    -0.2000    -1.9080 o          1 CFJ      -0.556100
     23 N17          4.9920     1.5260    -0.4130 ns         1 CFJ      -0.149000
     24 C18          6.1520     1.1750     0.3290 ca         1 CFJ       0.018000
     25 C19          6.6510     2.1230     1.2400 ca         1 CFJ      -0.183000
     26 N23         10.5610     0.1400     3.3380 n1         1 CFJ      -0.442000
     27 C27         -3.6070    -0.0040    -0.8960 ca         1 CFJ      -0.040000
     28 C29         -5.5060    -1.6310    -0.5740 c          1 CFJ       0.588600
     29 O30         -4.9130    -2.5040    -1.1950 o          1 CFJ      -0.517000
     30 N31         -6.7600    -1.8590     0.0050 n          1 CFJ      -0.371400
     31 C32         -7.3820    -3.2020    -0.1770 c3         1 CFJ       0.101000
     32 C33         -7.0230    -4.1810     0.9570 c3         1 CFJ      -0.109100
     33 C34         -7.4870    -0.8780     0.6970 c          1 CFJ       0.620000
     34 O35         -8.5850    -1.1340     1.1770 o          1 CFJ      -0.558000
     35 H1          -5.4710     2.7530     1.1000 ha         1 CFJ       0.125000
     36 H2          -3.2400     3.1980     0.2230 ha         1 CFJ       0.112000
     37 H3           0.6250     0.3940     0.2960 hc         1 CFJ       0.041700
     38 H4           2.3780     0.3780     0.4940 hc         1 CFJ       0.041700
     39 H5           1.5110     1.9270     0.4370 hc         1 CFJ       0.041700
     40 H6           8.1620     2.5980     2.7110 ha         1 CFJ       0.130000
     41 H7           6.4610    -0.8330    -0.4720 ha         1 CFJ       0.170000
     42 H8          -6.4390     1.9230     3.1230 hc         1 CFJ       0.047367
     43 H9          -8.1120     2.4850     3.3310 hc         1 CFJ       0.047367
     44 H10         -7.7290     0.7570     3.4860 hc         1 CFJ       0.047367
     45 H11         -7.5820     2.4270     0.8990 h1         1 CFJ       0.065700
     46 H12         -8.8200     1.2590     1.2840 h1         1 CFJ       0.065700
     47 H13         -1.3570     2.4750    -0.8240 hn         1 CFJ       0.149000
     48 H14          0.7130     1.6790    -3.3010 hc         1 CFJ       0.059700
     49 H15          0.4480     2.6870    -1.8490 hc         1 CFJ       0.059700
     50 H16          1.7540    -0.0790    -1.8830 hc         1 CFJ       0.098700
     51 H17          3.0710     2.6640    -1.5530 hc         1 CFJ       0.061200
     52 H18          3.1180     1.6570    -3.0300 hc         1 CFJ       0.061200
     53 H19          4.5940     2.4180    -0.1470 hn         1 CFJ       0.152000
     54 H20          6.1540     3.0850     1.3510 ha         1 CFJ       0.118000
     55 H21         -3.0770    -0.7910    -1.4230 ha         1 CFJ       0.175000
     56 H22         -8.4750    -3.1070    -0.2360 h1         1 CFJ       0.069200
     57 H23         -7.0690    -3.6360    -1.1360 h1         1 CFJ       0.069200
     58 H24         -5.9380    -4.3320     1.0080 hc         1 CFJ       0.045367
     59 H25         -7.3660    -3.7950     1.9240 hc         1 CFJ       0.045367
     60 H26         -7.4990    -5.1530     0.7850 hc         1 CFJ       0.045367
     61 Cl           8.7370    -1.9180     0.7820 cl         1 CFJ      -0.165000
@<TRIPOS>BOND
     1     1     2 1   
     2     1    15 1   
     3     1    33 1   
     4     2     3 ar  
     5     2    13 ar  
     6     3     4 ar  
     7     3    35 1   
     8     4     5 ar  
     9     4    36 1   
    10     5    16 1   
    11     5    27 ar  
    12     6    20 1   
    13     6    37 1   
    14     6    38 1   
    15     6    39 1   
    16     7    21 1   
    17     7    22 2   
    18     7    23 1   
    19     8     9 ar  
    20     8    25 ar  
    21     8    40 1   
    22     9    10 1   
    23     9    11 ar  
    24    10    26 3   
    25    11    12 ar  
    26    11    61 1   
    27    12    24 ar  
    28    12    41 1   
    29    13    27 ar  
    30    13    28 1   
    31    14    15 1   
    32    14    42 1   
    33    14    43 1   
    34    14    44 1   
    35    15    45 1   
    36    15    46 1   
    37    16    17 1   
    38    16    47 1   
    39    17    18 2   
    40    17    19 1   
    41    19    20 1   
    42    19    48 1   
    43    19    49 1   
    44    20    21 1   
    45    20    50 1   
    46    21    51 1   
    47    21    52 1   
    48    23    24 1   
    49    23    53 1   
    50    24    25 ar  
    51    25    54 1   
    52    27    55 1   
    53    28    29 2   
    54    28    30 1   
    55    30    31 1   
    56    30    33 1   
    57    31    32 1   
    58    31    56 1   
    59    31    57 1   
    60    32    58 1   
    61    32    59 1   
    62    32    60 1   
    63    33    34 2   
@<TRIPOS>SUBSTRUCTURE
     1 CFJ         1 TEMP              0 ****  ****    0 ROOT
