@<TRIPOS>MOLECULE
CFK
   29    30     1     0     0
SMALL
No Charge or Current Charge


@<TRIPOS>ATOM
      1 C1          -5.2490     0.3020     0.0680 ca         1 CFK      -0.101000
      2 C2          -4.6740    -0.8870     0.5450 ca         1 CFK      -0.110500
      3 C3          -3.2800    -1.0640     0.5000 ca         1 CFK      -0.092000
      4 C4          -2.4440    -0.0530    -0.0200 ca         1 CFK      -0.024000
      5 C5          -3.0330     1.1360    -0.5030 ca         1 CFK      -0.092000
      6 C6          -4.4280     1.3120    -0.4580 ca         1 CFK      -0.110500
      7 C7          -0.9930    -0.2560    -0.0650 cc         1 CFK      -0.107000
      8 C8          -0.1070     0.7860     0.0590 cd         1 CFK      -0.154000
      9 C9           1.2520     0.3580     0.0090 cd         1 CFK       0.161600
     10 C10          1.3950    -1.0020    -0.1420 cc         1 CFK      -0.398600
     11 S11         -0.1730    -1.8050    -0.2160 ss         1 CFK       0.203000
     12 C12          2.6780    -1.7190    -0.2270 c          1 CFK       0.667700
     13 O13          3.7720    -1.1830    -0.1740 o          1 CFK      -0.655100
     14 N14          2.5920    -3.0510    -0.3720 nt         1 CFK      -0.596000
     15 N15          2.3530     1.1870     0.1020 ns         1 CFK      -0.410100
     16 C16          2.4340     2.5450     0.2480 c          1 CFK       0.664100
     17 O17          1.4940     3.3120     0.3270 o          1 CFK      -0.630100
     18 N18          3.6970     2.9980     0.3010 nt         1 CFK      -0.610000
     19 H1          -6.3280     0.4380     0.1030 ha         1 CFK       0.115000
     20 H2          -5.3080    -1.6720     0.9520 ha         1 CFK       0.115500
     21 H3          -2.8520    -1.9890     0.8790 ha         1 CFK       0.119000
     22 H5          -2.4170     1.9230    -0.9290 ha         1 CFK       0.119000
     23 H6          -4.8710     2.2310    -0.8340 ha         1 CFK       0.115500
     24 H8          -0.4160     1.8140     0.1910 ha         1 CFK       0.174000
     25 HN14         1.6900    -3.4970    -0.4170 hn         1 CFK       0.316500
     26 HN1A         3.4400    -3.5920    -0.4360 hn         1 CFK       0.316500
     27 HN15         3.2530     0.7240     0.0520 hn         1 CFK       0.363500
     28 HN18         4.4790     2.3650     0.2370 hn         1 CFK       0.319500
     29 HN1B         3.8520     3.9890     0.4080 hn         1 CFK       0.319500
@<TRIPOS>BOND
     1     1     2 ar  
     2     1     6 ar  
     3     1    19 1   
     4     2     3 ar  
     5     2    20 1   
     6     3     4 ar  
     7     3    21 1   
     8     4     5 ar  
     9     4     7 1   
    10     5     6 ar  
    11     5    22 1   
    12     6    23 1   
    13     7     8 2   
    14     7    11 1   
    15     8     9 1   
    16     8    24 1   
    17     9    10 2   
    18     9    15 1   
    19    10    11 1   
    20    10    12 1   
    21    12    13 2   
    22    12    14 1   
    23    14    25 1   
    24    14    26 1   
    25    15    16 1   
    26    15    27 1   
    27    16    17 2   
    28    16    18 1   
    29    18    28 1   
    30    18    29 1   
@<TRIPOS>SUBSTRUCTURE
     1 CFK         1 TEMP              0 ****  ****    0 ROOT
