@<TRIPOS>MOLECULE
CFK
   29    30     1     0     0
SMALL
bcc


@<TRIPOS>ATOM
      1 C1          -5.2240     0.2260     0.0270 ca         1 CFK      -0.119000
      2 C2          -4.6240    -0.9400     0.4860 ca         1 CFK      -0.128500
      3 C3          -3.2440    -1.0650     0.4790 ca         1 CFK      -0.110000
      4 C4          -2.4390    -0.0260     0.0050 ca         1 CFK      -0.024000
      5 C5          -3.0510     1.1400    -0.4590 ca         1 CFK      -0.110000
      6 C6          -4.4310     1.2650    -0.4440 ca         1 CFK      -0.128500
      7 C7          -0.9810    -0.1400    -0.0060 cc         1 CFK       0.037900
      8 C8          -0.0680     0.8710     0.0940 cd         1 CFK      -0.172000
      9 C9           1.2780     0.4100     0.0440 cd         1 CFK       0.161600
     10 C10          1.3550    -0.9670    -0.0970 cc         1 CFK      -0.253700
     11 S11         -0.2220    -1.6700    -0.1710 ss         1 CFK      -0.086800
     12 C12          2.5870    -1.7530    -0.1780 c          1 CFK       0.734700
     13 O13          3.6890    -1.2070    -0.0800 o          1 CFK      -0.655100
     14 N14          2.4720    -3.0790    -0.3510 nt         1 CFK      -0.663000
     15 N15          2.4100     1.1850     0.1270 ns         1 CFK      -0.477100
     16 C16          2.4770     2.5530     0.2550 c          1 CFK       0.798100
     17 O17          1.4950     3.2750     0.3280 o          1 CFK      -0.630100
     18 N18          3.7430     3.0210     0.3250 nt         1 CFK      -0.677000
     19 H1          -6.3010     0.3240     0.0350 ha         1 CFK       0.133000
     20 H2          -5.2310    -1.7540     0.8590 ha         1 CFK       0.133500
     21 H3          -2.7950    -1.9720     0.8650 ha         1 CFK       0.137000
     22 H5          -2.4490     1.9480    -0.8540 ha         1 CFK       0.137000
     23 H6          -4.8880     2.1740    -0.8120 ha         1 CFK       0.133500
     24 H8          -0.3470     1.9020     0.2290 ha         1 CFK       0.192000
     25 HN14         1.6000    -3.5480    -0.5260 hn         1 CFK       0.316500
     26 HN1A         3.3070    -3.6310    -0.4630 hn         1 CFK       0.316500
     27 HN15         3.2670     0.6410     0.0860 hn         1 CFK       0.363500
     28 HN18         4.5400     2.4520     0.0960 hn         1 CFK       0.319500
     29 HN1B         3.8810     4.0160     0.2890 hn         1 CFK       0.319500
@<TRIPOS>BOND
     1     1     2 ar  
     2     1     6 ar  
     3     1    19 1   
     4     2     3 ar  
     5     2    20 1   
     6     3     4 ar  
     7     3    21 1   
     8     4     5 ar  
     9     4     7 1   
    10     5     6 ar  
    11     5    22 1   
    12     6    23 1   
    13     7     8 2   
    14     7    11 1   
    15     8     9 1   
    16     8    24 1   
    17     9    10 2   
    18     9    15 1   
    19    10    11 1   
    20    10    12 1   
    21    12    13 2   
    22    12    14 1   
    23    14    25 1   
    24    14    26 1   
    25    15    16 1   
    26    15    27 1   
    27    16    17 2   
    28    16    18 1   
    29    18    28 1   
    30    18    29 1   
@<TRIPOS>SUBSTRUCTURE
     1 CFK         1 TEMP              0 ****  ****    0 ROOT
