@<TRIPOS>MOLECULE
CFP
   13    14     1     0     0
SMALL
bcc


@<TRIPOS>ATOM
      1 N9          -2.1050     0.0510     1.4260 na         1 CFP      -0.356000
      2 C8          -1.2850     0.0540     2.5160 cc         1 CFP       0.421700
      3 N7          -0.0190     0.0430     2.2200 nd         1 CFP      -0.518100
      4 C5           0.0010     0.0330     0.8530 ca         1 CFP      -0.176200
      5 C6           0.9990     0.0180    -0.1030 ca         1 CFP       0.625300
      6 CL6          2.6480     0.0100     0.3510 cl         1 CFP      -0.101000
      7 N1           0.7060     0.0100    -1.3850 nb         1 CFP      -0.745000
      8 C2          -0.5700     0.0160    -1.7120 ca         1 CFP       0.908200
      9 N3          -1.6270     0.0300    -0.9470 nb         1 CFP      -0.727000
     10 C4          -1.3050     0.0380     0.3380 ca         1 CFP       0.451800
     11 F2          -0.8060     0.0070    -3.0130 f          1 CFP      -0.188200
     12 HN9         -3.1140     0.0580     1.4370 hn         1 CFP       0.329700
     13 H8          -1.6900     0.0640     3.5160 h5         1 CFP       0.075800
@<TRIPOS>BOND
     1     1     2 1   
     2     1    10 1   
     3     1    12 1   
     4     2     3 2   
     5     2    13 1   
     6     3     4 1   
     7     4     5 ar  
     8     4    10 ar  
     9     5     6 1   
    10     5     7 ar  
    11     7     8 ar  
    12     8     9 ar  
    13     8    11 1   
    14     9    10 ar  
@<TRIPOS>SUBSTRUCTURE
     1 CFP         1 TEMP              0 ****  ****    0 ROOT
