@<TRIPOS>MOLECULE
CFP
   13    14     1     0     0
SMALL
No Charge or Current Charge


@<TRIPOS>ATOM
      1 N9          -2.1240     0.0520     1.4580 na         1 CFP      -0.406300
      2 C8          -1.3000     0.0550     2.5820 cc         1 CFP       0.421700
      3 N7          -0.0030     0.0430     2.2200 nd         1 CFP      -0.518100
      4 C5          -0.0500     0.0320     0.8240 ca         1 CFP      -0.045600
      5 C6           1.0100     0.0180    -0.1080 ca         1 CFP       0.297000
      6 Cl6          2.6960     0.0100     0.3970 cl         1 CFP      -0.101000
      7 N1           0.7560     0.0090    -1.4350 nb         1 CFP      -0.219000
      8 C2          -0.5510     0.0160    -1.7850 ca         1 CFP       0.382200
      9 N3          -1.6270     0.0290    -0.9640 nb         1 CFP      -0.201000
     10 C4          -1.3370     0.0380     0.3490 ca         1 CFP       0.123500
     11 F2          -0.8120     0.0070    -3.1100 f          1 CFP      -0.188200
     12 HN9         -3.1350     0.0590     1.4750 hn         1 CFP       0.380000
     13 H8          -1.6890     0.0650     3.5940 h5         1 CFP       0.075800
@<TRIPOS>BOND
     1     1     2 1   
     2     1    10 1   
     3     1    12 1   
     4     2     3 2   
     5     2    13 1   
     6     3     4 1   
     7     4     5 ar  
     8     4    10 ar  
     9     5     6 1   
    10     5     7 ar  
    11     7     8 ar  
    12     8     9 ar  
    13     8    11 1   
    14     9    10 ar  
@<TRIPOS>SUBSTRUCTURE
     1 CFP         1 TEMP              0 ****  ****    0 ROOT
