@<TRIPOS>MOLECULE
CFS
   35    35     1     0     0
SMALL
bcc


@<TRIPOS>ATOM
      1 N            0.5030     1.7470     0.0340 n8         1 CFS      -0.922800
      2 CA           0.1280     0.3360     0.0040 c3         1 CFS       0.129500
      3 CB           0.8210    -0.3790    -1.1560 c3         1 CFS      -0.085400
      4 CG           0.4260     0.0810    -2.5600 c6         1 CFS      -0.061700
      5 CD1          1.2180    -0.7070    -3.6060 c6         1 CFS      -0.073900
      6 CD2         -1.0750    -0.0500    -2.8230 c6         1 CFS      -0.073900
      7 CE1          0.8520    -0.3050    -5.0300 c6         1 CFS      -0.072900
      8 CE2         -1.4450     0.3460    -4.2490 c6         1 CFS      -0.072900
      9 CZ          -0.6460    -0.4460    -5.2780 c6         1 CFS      -0.073400
     10 CH           0.5810    -0.2950     1.3450 c3         1 CFS       0.118100
     11 OH1          1.7940     0.2790     1.7430 oh         1 CFS      -0.585800
     12 CM          -0.4450    -0.1470     2.4630 c3         1 CFS       0.227600
     13 F1          -0.8600     1.1520     2.5590 f          1 CFS      -0.273300
     14 F2          -1.5730    -0.8570     2.1130 f          1 CFS      -0.273300
     15 C            0.0550    -0.6660     3.8320 c          1 CFS       0.936600
     16 O            0.0750     0.1390     4.7720 o          1 CFS      -0.797800
     17 OXT          0.3810    -1.8650     3.8200 o          1 CFS      -0.797800
     18 HN1          0.7240     2.0930    -0.8880 hn         1 CFS       0.350300
     19 HN2         -0.2420     2.3250     0.3960 hn         1 CFS       0.350300
     20 HA          -0.9520     0.1970    -0.1070 h1         1 CFS       0.043700
     21 HB1          1.9060    -0.2810    -1.0390 hc         1 CFS       0.053200
     22 HB2          0.6000    -1.4480    -1.0700 hc         1 CFS       0.053200
     23 HG           0.6980     1.1390    -2.6890 hc         1 CFS       0.034700
     24 HD11         2.2900    -0.5680    -3.4380 hc         1 CFS       0.042200
     25 HD12         1.0210    -1.7780    -3.4690 hc         1 CFS       0.042200
     26 HD21        -1.3790    -1.0880    -2.6400 hc         1 CFS       0.042200
     27 HD22        -1.6430     0.5650    -2.1200 hc         1 CFS       0.042200
     28 HE11         1.1530     0.7340    -5.2020 hc         1 CFS       0.031950
     29 HE12         1.4140    -0.9100    -5.7470 hc         1 CFS       0.031950
     30 HE21        -1.2530     1.4170    -4.3860 hc         1 CFS       0.031950
     31 HE22        -2.5170     0.2040    -4.4080 hc         1 CFS       0.031950
     32 HZ1         -0.8970    -0.1160    -6.2890 hc         1 CFS       0.032700
     33 HZ2         -0.9250    -1.5030    -5.2170 hc         1 CFS       0.032700
     34 HCH          0.7220    -1.3710     1.2040 h1         1 CFS       0.082700
     35 HH1          1.7660     1.1610     1.3150 ho         1 CFS       0.422000
@<TRIPOS>BOND
     1     1     2 1   
     2     1    18 1   
     3     1    19 1   
     4     2     3 1   
     5     2    10 1   
     6     2    20 1   
     7     3     4 1   
     8     3    21 1   
     9     3    22 1   
    10     4     5 1   
    11     4     6 1   
    12     4    23 1   
    13     5     7 1   
    14     5    24 1   
    15     5    25 1   
    16     6     8 1   
    17     6    26 1   
    18     6    27 1   
    19     7     9 1   
    20     7    28 1   
    21     7    29 1   
    22     8     9 1   
    23     8    30 1   
    24     8    31 1   
    25     9    32 1   
    26     9    33 1   
    27    10    11 1   
    28    10    12 1   
    29    10    34 1   
    30    11    35 1   
    31    12    13 1   
    32    12    14 1   
    33    12    15 1   
    34    15    16 1   
    35    15    17 1   
@<TRIPOS>SUBSTRUCTURE
     1 CFS         1 TEMP              0 ****  ****    0 ROOT
