@<TRIPOS>MOLECULE
CFS
   35    35     1     0     0
SMALL
No Charge or Current Charge


@<TRIPOS>ATOM
      1 N            0.5550     1.7860    -0.0070 n8         1 CFS      -1.033200
      2 CA           0.1760     0.3430     0.0490 c3         1 CFS       0.129500
      3 CB           0.8290    -0.4130    -1.1410 c3         1 CFS      -0.085400
      4 CG           0.4310     0.0490    -2.5820 c6         1 CFS      -0.061700
      5 CD1          1.2440    -0.7370    -3.6500 c6         1 CFS      -0.073900
      6 CD2         -1.0960    -0.0970    -2.8590 c6         1 CFS      -0.073900
      7 CE1          0.8790    -0.2960    -5.0890 c6         1 CFS      -0.072900
      8 CE2         -1.4610     0.3380    -4.3000 c6         1 CFS      -0.072900
      9 CZ          -0.6380    -0.4440    -5.3510 c6         1 CFS      -0.073400
     10 CH           0.5960    -0.2640     1.4300 c3         1 CFS       0.141300
     11 OH1          1.8080     0.4160     1.7620 oh         1 CFS      -0.648000
     12 CM          -0.4560    -0.0730     2.5680 c3         1 CFS      -0.015000
     13 F1          -0.7180     1.2530     2.7410 f          1 CFS      -0.152000
     14 F2          -1.6310    -0.6330     2.1770 f          1 CFS      -0.152000
     15 C            0.0370    -0.7480     3.8920 c          1 CFS       0.726000
     16 O            0.0550    -0.0900     4.9270 o          1 CFS      -0.692500
     17 OXT          0.3070    -1.9440     3.8670 o          1 CFS      -0.692500
     18 HN1          0.3780     2.1320    -0.9570 hn         1 CFS       0.405500
     19 HN2         -0.1140     2.3200     0.5630 hn         1 CFS       0.405500
     20 HA          -0.9140     0.2650    -0.0590 h1         1 CFS       0.043700
     21 HB1          1.9190    -0.3480    -1.0310 hc         1 CFS       0.053200
     22 HB2          0.5870    -1.4790    -1.0360 hc         1 CFS       0.053200
     23 HG           0.7020     1.1100    -2.6680 hc         1 CFS       0.034700
     24 HD11         2.3200    -0.5880    -3.4870 hc         1 CFS       0.042200
     25 HD12         1.0610    -1.8150    -3.5410 hc         1 CFS       0.042200
     26 HD21        -1.4060    -1.1390    -2.7000 hc         1 CFS       0.042200
     27 HD22        -1.6740     0.5120    -2.1510 hc         1 CFS       0.042200
     28 HE11         1.1820     0.7490    -5.2450 hc         1 CFS       0.031950
     29 HE12         1.4430    -0.8950    -5.8170 hc         1 CFS       0.031950
     30 HE21        -1.2800     1.4160    -4.4170 hc         1 CFS       0.031950
     31 HE22        -2.5340     0.1820    -4.4760 hc         1 CFS       0.031950
     32 HZ1         -0.8810    -0.0830    -6.3600 hc         1 CFS       0.032700
     33 HZ2         -0.9170    -1.5070    -5.3240 hc         1 CFS       0.032700
     34 HCH          0.7720    -1.3430     1.3110 h1         1 CFS       0.082700
     35 HH1          1.7170     1.1970     1.1480 ho         1 CFS       0.461000
@<TRIPOS>BOND
     1     1     2 1   
     2     1    18 1   
     3     1    19 1   
     4     2     3 1   
     5     2    10 1   
     6     2    20 1   
     7     3     4 1   
     8     3    21 1   
     9     3    22 1   
    10     4     5 1   
    11     4     6 1   
    12     4    23 1   
    13     5     7 1   
    14     5    24 1   
    15     5    25 1   
    16     6     8 1   
    17     6    26 1   
    18     6    27 1   
    19     7     9 1   
    20     7    28 1   
    21     7    29 1   
    22     8     9 1   
    23     8    30 1   
    24     8    31 1   
    25     9    32 1   
    26     9    33 1   
    27    10    11 1   
    28    10    12 1   
    29    10    34 1   
    30    11    35 1   
    31    12    13 1   
    32    12    14 1   
    33    12    15 1   
    34    15    16 1   
    35    15    17 1   
@<TRIPOS>SUBSTRUCTURE
     1 CFS         1 TEMP              0 ****  ****    0 ROOT
