@<TRIPOS>MOLECULE
CFT
    5     4     1     0     0
SMALL
bcc


@<TRIPOS>ATOM
      1 C1          -0.0280     0.0060     0.3880 c3         1 CFT       0.657200
      2 FB1          1.0200     0.6840    -0.0860 f          1 CFT      -0.243300
      3 FB2         -1.1370     0.6000    -0.0600 f          1 CFT      -0.243300
      4 FB3          0.0130    -1.2250    -0.1260 f          1 CFT      -0.243300
      5 H1          -0.0140    -0.0250     1.4750 h3         1 CFT       0.072700
@<TRIPOS>BOND
     1     1     2 1   
     2     1     3 1   
     3     1     4 1   
     4     1     5 1   
@<TRIPOS>SUBSTRUCTURE
     1 CFT         1 TEMP              0 ****  ****    0 ROOT
