@<TRIPOS>MOLECULE
CFT
    5     4     1     0     0
SMALL
No Charge or Current Charge


@<TRIPOS>ATOM
      1 C1          -0.0280     0.0060     0.3920 c3         1 CFT       0.293300
      2 FB1          1.0320     0.6920    -0.0910 f          1 CFT      -0.122000
      3 FB2         -1.1500     0.6070    -0.0640 f          1 CFT      -0.122000
      4 FB3          0.0140    -1.2400    -0.1320 f          1 CFT      -0.122000
      5 H1          -0.0140    -0.0250     1.4860 h3         1 CFT       0.072700
@<TRIPOS>BOND
     1     1     2 1   
     2     1     3 1   
     3     1     4 1   
     4     1     5 1   
@<TRIPOS>SUBSTRUCTURE
     1 CFT         1 TEMP              0 ****  ****    0 ROOT
