@<TRIPOS>MOLECULE
CFU
   30    30     1     0     0
SMALL
No Charge or Current Charge


@<TRIPOS>ATOM
      1 O4A         -2.8270     2.5830    -0.0790 o          1 CFU      -0.707500
      2 C4          -3.2330     1.4260    -0.1590 c          1 CFU       0.716200
      3 O4B         -4.4260     1.1750    -0.2750 o          1 CFU      -0.707500
      4 C5          -2.1730     0.2860    -0.1020 ce         1 CFU       0.043800
      5 C3          -2.4500    -1.0500    -0.2300 c2         1 CFU      -0.242400
      6 C9          -3.8300    -1.6590    -0.4440 c3         1 CFU      -0.001900
      7 C2          -1.3510    -2.1050    -0.1800 c6         1 CFU       0.142800
      8 S1           0.1800    -1.6160     0.7010 ss         1 CFU      -0.517000
      9 N5          -0.8340     0.7740     0.0570 nu         1 CFU      -0.795200
     10 C6           0.3840    -0.0090    -0.1510 c6         1 CFU       0.368500
     11 C7           1.6450     0.7340     0.3830 c3         1 CFU      -0.013300
     12 C8           1.5710     0.9600     1.9100 c          1 CFU       0.581900
     13 O9           2.4780     0.6740     2.6910 o          1 CFU      -0.530100
     14 N10          2.9250     0.0630     0.0120 ns         1 CFU      -0.489900
     15 C11          3.3990    -0.0800    -1.2710 c          1 CFU       0.606100
     16 O12          2.8170     0.3820    -2.2410 o          1 CFU      -0.615100
     17 C13          4.7090    -0.8490    -1.3870 c3         1 CFU      -0.176100
     18 H3          -3.7890    -2.7470    -0.5840 hc         1 CFU       0.025700
     19 H4          -4.4830    -1.4710     0.4160 hc         1 CFU       0.025700
     20 H5          -1.7200    -3.0180     0.3090 h1         1 CFU       0.049200
     21 H6          -1.0660    -2.3750    -1.2070 h1         1 CFU       0.049200
     22 H7          -0.7660     1.7950     0.0130 hn         1 CFU       0.499000
     23 H9           0.5140    -0.2250    -1.2220 h2         1 CFU       0.045700
     24 H10          1.6500     1.7320    -0.0730 h1         1 CFU       0.098700
     25 H11          0.6290     1.4210     2.2810 h4         1 CFU       0.029200
     26 H12          3.4820    -0.3520     0.7520 hn         1 CFU       0.325500
     27 H13          4.5890    -1.8310    -0.9160 hc         1 CFU       0.054033
     28 H14          5.0580    -0.9360    -2.4230 hc         1 CFU       0.054033
     29 H15          5.4600    -0.3740    -0.7460 hc         1 CFU       0.054033
     30 H2          -4.3110    -1.2470    -1.3390 hc         1 CFU       0.025700
@<TRIPOS>BOND
     1     1     2 1   
     2     2     3 1   
     3     2     4 1   
     4     4     5 2   
     5     4     9 1   
     6     5     6 1   
     7     5     7 1   
     8     6    18 1   
     9     6    19 1   
    10     6    30 1   
    11     7     8 1   
    12     7    20 1   
    13     7    21 1   
    14     8    10 1   
    15     9    10 1   
    16     9    22 1   
    17    10    11 1   
    18    10    23 1   
    19    11    12 1   
    20    11    14 1   
    21    11    24 1   
    22    12    13 2   
    23    12    25 1   
    24    14    15 1   
    25    14    26 1   
    26    15    16 2   
    27    15    17 1   
    28    17    27 1   
    29    17    28 1   
    30    17    29 1   
@<TRIPOS>SUBSTRUCTURE
     1 CFU         1 TEMP              0 ****  ****    0 ROOT
