@<TRIPOS>MOLECULE
CFU
   30    30     1     0     0
SMALL
abcg2


@<TRIPOS>ATOM
      1 O4A         -2.7030     2.4640    -0.7130 o          1 CFU      -0.707500
      2 C4          -3.1850     1.4080    -0.2470 c          1 CFU       0.716200
      3 O4B         -4.3550     1.2280     0.1220 o          1 CFU      -0.707500
      4 C5          -2.1880     0.2520    -0.1160 ce         1 CFU       0.043800
      5 C3          -2.5180    -1.0530    -0.0830 c2         1 CFU      -0.242400
      6 C9          -3.9070    -1.6090    -0.2260 c3         1 CFU      -0.001900
      7 C2          -1.5000    -2.1520     0.0740 c6         1 CFU       0.142800
      8 S1           0.0880    -1.6130     0.7500 ss         1 CFU      -0.517000
      9 N5          -0.8820     0.7310    -0.0220 nu         1 CFU      -0.795200
     10 C6           0.2150    -0.1310    -0.3080 c6         1 CFU       0.368500
     11 C7           1.5380     0.5780    -0.0110 c3         1 CFU      -0.013300
     12 C8           1.6370     0.9270     1.4640 c          1 CFU       0.581900
     13 O9           2.5750     0.6350     2.1560 o          1 CFU      -0.530100
     14 N10          2.6450    -0.2090    -0.4660 ns         1 CFU      -0.489900
     15 C11          3.8540     0.3290    -0.7230 c          1 CFU       0.606100
     16 O12          4.0590     1.5320    -0.6710 o          1 CFU      -0.615100
     17 C13          4.9330    -0.6550    -1.0950 c3         1 CFU      -0.176100
     18 H3          -3.8670    -2.5470    -0.7870 hc         1 CFU       0.025700
     19 H4          -4.3480    -1.8500     0.7460 hc         1 CFU       0.025700
     20 H5          -1.8750    -2.9060     0.7710 h1         1 CFU       0.049200
     21 H6          -1.3300    -2.6700    -0.8740 h1         1 CFU       0.049200
     22 H7          -0.8220     1.6500    -0.4460 hn         1 CFU       0.499000
     23 H9           0.2280    -0.4790    -1.3500 h2         1 CFU       0.045700
     24 H10          1.5190     1.5290    -0.5570 h1         1 CFU       0.098700
     25 H11          0.7770     1.4930     1.8560 h4         1 CFU       0.029200
     26 H12          2.5500    -1.2130    -0.4490 hn         1 CFU       0.325500
     27 H13          4.5740    -1.6770    -1.2000 hc         1 CFU       0.054033
     28 H14          5.3960    -0.3500    -2.0330 hc         1 CFU       0.054033
     29 H15          5.7090    -0.6410    -0.3290 hc         1 CFU       0.054033
     30 H2          -4.5880    -0.9390    -0.7380 hc         1 CFU       0.025700
@<TRIPOS>BOND
     1     1     2 1   
     2     2     3 1   
     3     2     4 1   
     4     4     5 2   
     5     4     9 1   
     6     5     6 1   
     7     5     7 1   
     8     6    18 1   
     9     6    19 1   
    10     6    30 1   
    11     7     8 1   
    12     7    20 1   
    13     7    21 1   
    14     8    10 1   
    15     9    10 1   
    16     9    22 1   
    17    10    11 1   
    18    10    23 1   
    19    11    12 1   
    20    11    14 1   
    21    11    24 1   
    22    12    13 2   
    23    12    25 1   
    24    14    15 1   
    25    14    26 1   
    26    15    16 2   
    27    15    17 1   
    28    17    27 1   
    29    17    28 1   
    30    17    29 1   
@<TRIPOS>SUBSTRUCTURE
     1 CFU         1 TEMP              0 ****  ****    0 ROOT
