@<TRIPOS>MOLECULE
CFV
   30    30     1     0     0
SMALL
No Charge or Current Charge


@<TRIPOS>ATOM
      1 OAN         -2.2420     3.8940    -0.1050 o          1 CFV      -0.930167
      2 PAM         -1.5920     2.6250     0.3390 p5         1 CFV       1.286500
      3 OAO         -0.1080     2.7750     0.2750 o          1 CFV      -0.930167
      4 OAP         -2.0130     2.3140     1.7370 o          1 CFV      -0.930167
      5 CAL         -2.1440     1.2310    -0.8140 c3         1 CFV      -0.172400
      6 OAK         -1.4360    -0.0430    -0.7160 os         1 CFV      -0.428000
      7 CAJ         -1.5260    -0.7690     0.5450 c3         1 CFV       0.147300
      8 CAQ         -2.9960    -1.2180     0.8420 c3         1 CFV       0.129600
      9 OAR         -3.5180    -2.1120    -0.1590 oh         1 CFV      -0.705000
     10 CAA         -0.5500    -1.9750     0.4830 c3         1 CFV       0.103000
     11 NAB          0.8800    -1.5980     0.3430 n          1 CFV      -0.281000
     12 CAC          1.5820    -1.1110     1.4400 cc         1 CFV       0.081600
     13 CAD          2.9030    -0.7620     1.2930 cd         1 CFV      -0.474600
     14 CAE          3.4680    -0.9260     0.0140 cd         1 CFV       0.815500
     15 NAF          4.7310    -0.6050    -0.1990 nv         1 CFV      -1.052200
     16 NAG          2.8380    -1.3800    -1.0150 nc         1 CFV      -0.774100
     17 CAH          1.5220    -1.7400    -0.9090 c          1 CFV       0.747400
     18 OAI          0.9550    -2.1860    -1.8940 o          1 CFV      -0.604000
     19 HAL         -3.2210     1.0880    -0.6640 h1         1 CFV       0.004700
     20 HALA        -2.0210     1.6270    -1.8300 h1         1 CFV       0.004700
     21 HAJ         -1.2010    -0.1320     1.3770 h1         1 CFV       0.109700
     22 HAQ         -3.0090    -1.7200     1.8190 h1         1 CFV       0.001700
     23 HAQA        -3.6420    -0.3370     0.9350 h1         1 CFV       0.001700
     24 HOAR        -4.4650    -2.2640     0.0600 ho         1 CFV       0.455000
     25 HAA         -0.6550    -2.5520     1.4110 h1         1 CFV       0.038200
     26 HAAA        -0.8500    -2.6450    -0.3320 h1         1 CFV       0.038200
     27 HAC          0.9950    -1.0500     2.3530 h4         1 CFV       0.199000
     28 HAD          3.4860    -0.3810     2.1210 ha         1 CFV       0.180000
     29 HNAF         5.1170     0.0830     0.4330 hn         1 CFV       0.469000
     30 HNAA         4.9700    -0.5020    -1.1750 hn         1 CFV       0.469000
@<TRIPOS>BOND
     1     1     2 1   
     2     2     3 1   
     3     2     4 1   
     4     2     5 1   
     5     5     6 1   
     6     5    19 1   
     7     5    20 1   
     8     6     7 1   
     9     7     8 1   
    10     7    10 1   
    11     7    21 1   
    12     8     9 1   
    13     8    22 1   
    14     8    23 1   
    15     9    24 1   
    16    10    11 1   
    17    10    25 1   
    18    10    26 1   
    19    11    12 1   
    20    11    17 1   
    21    12    13 2   
    22    12    27 1   
    23    13    14 1   
    24    13    28 1   
    25    14    15 1   
    26    14    16 2   
    27    15    29 1   
    28    15    30 1   
    29    16    17 1   
    30    17    18 2   
@<TRIPOS>SUBSTRUCTURE
     1 CFV         1 TEMP              0 ****  ****    0 ROOT
