@<TRIPOS>MOLECULE
CFV
   30    30     1     0     0
SMALL
bcc


@<TRIPOS>ATOM
      1 OAN         -0.8630     3.5690     0.0920 o          1 CFV      -0.930167
      2 PAM         -0.3910     2.1090     0.2270 p5         1 CFV       1.128700
      3 OAO          0.8460     1.7810    -0.6100 o          1 CFV      -0.930167
      4 OAP         -0.3320     1.6360     1.6890 o          1 CFV      -0.930167
      5 CAL         -1.8120     1.1860    -0.5650 c3         1 CFV      -0.037800
      6 OAK         -1.6570    -0.2240    -0.6890 os         1 CFV      -0.381600
      7 CAJ         -1.7670    -0.9270     0.5200 c3         1 CFV       0.124100
      8 CAQ         -3.1670    -1.4770     0.7320 c3         1 CFV       0.106400
      9 OAR         -3.4810    -2.4190    -0.2690 oh         1 CFV      -0.582800
     10 CAA         -0.7210    -2.0340     0.5290 c3         1 CFV       0.103000
     11 NAB          0.6240    -1.5040     0.3600 n          1 CFV      -0.348000
     12 CAC          1.2300    -0.9070     1.4050 cc         1 CFV       0.131600
     13 CAD          2.4670    -0.3810     1.3030 cd         1 CFV      -0.424600
     14 CAE          3.0550    -0.4210     0.0120 cd         1 CFV       0.815500
     15 NAF          4.2720     0.1140    -0.1810 nv         1 CFV      -0.941800
     16 NAG          2.4760    -1.0120    -1.0110 nc         1 CFV      -0.774100
     17 CAH          1.2450    -1.5490    -0.8910 c          1 CFV       0.889900
     18 OAI          0.6850    -2.1060    -1.8320 o          1 CFV      -0.679500
     19 HAL         -2.7540     1.4220    -0.0420 h1         1 CFV       0.004700
     20 HALA        -1.9470     1.5510    -1.5900 h1         1 CFV       0.004700
     21 HAJ         -1.5620    -0.2590     1.3640 h1         1 CFV       0.109700
     22 HAQ         -3.2130    -1.9210     1.7360 h1         1 CFV       0.001700
     23 HAQA        -3.8740    -0.6360     0.7290 h1         1 CFV       0.001700
     24 HOAR        -4.3700    -2.7440    -0.1030 ho         1 CFV       0.356000
     25 HAA         -0.7640    -2.5710     1.4790 h1         1 CFV       0.038200
     26 HAAA        -0.9000    -2.7550    -0.2630 h1         1 CFV       0.038200
     27 HAC          0.6830    -0.9020     2.3360 h4         1 CFV       0.149000
     28 HAD          2.9480     0.0940     2.1440 ha         1 CFV       0.130000
     29 HNAF         4.6810     0.7100     0.5160 hn         1 CFV       0.413800
     30 HNAA         4.6210     0.2030    -1.1200 hn         1 CFV       0.413800
@<TRIPOS>BOND
     1     1     2 1   
     2     2     3 1   
     3     2     4 1   
     4     2     5 1   
     5     5     6 1   
     6     5    19 1   
     7     5    20 1   
     8     6     7 1   
     9     7     8 1   
    10     7    10 1   
    11     7    21 1   
    12     8     9 1   
    13     8    22 1   
    14     8    23 1   
    15     9    24 1   
    16    10    11 1   
    17    10    25 1   
    18    10    26 1   
    19    11    12 1   
    20    11    17 1   
    21    12    13 2   
    22    12    27 1   
    23    13    14 1   
    24    13    28 1   
    25    14    15 1   
    26    14    16 2   
    27    15    29 1   
    28    15    30 1   
    29    16    17 1   
    30    17    18 2   
@<TRIPOS>SUBSTRUCTURE
     1 CFV         1 TEMP              0 ****  ****    0 ROOT
