@<TRIPOS>MOLECULE
CFY
   54    57     1     0     0
SMALL
bcc


@<TRIPOS>ATOM
      1 N            2.7560    -1.4520     0.1500 n8         1 CFY      -0.901800
      2 CA1          3.3460    -0.1930    -0.2230 c3         1 CFY       0.192500
      3 C1           2.3810     0.7620    -0.9650 c5         1 CFY       0.476100
      4 O1           3.0160     1.9520    -1.2000 oh         1 CFY      -0.588800
      5 CB1          4.6280    -0.4330    -1.0290 c3         1 CFY      -0.027100
      6 CG1          5.6800    -1.1250    -0.2100 ca         1 CFY      -0.050300
      7 CD1          6.5110    -0.3890     0.6320 ca         1 CFY      -0.117500
      8 CE1          7.4730    -1.0140     1.4140 ca         1 CFY      -0.136000
      9 CZ1          7.6210    -2.3940     1.3630 ca         1 CFY      -0.142000
     10 CE2          6.8010    -3.1390     0.5250 ca         1 CFY      -0.136000
     11 CD2          5.8370    -2.5080    -0.2510 ca         1 CFY      -0.117500
     12 N2           1.2080     0.9790    -0.1670 n2         1 CFY      -0.601900
     13 CA2          0.1140     0.5920    -0.6640 ce         1 CFY       0.440000
     14 C2          -1.1400     0.9350     0.0170 cc         1 CFY       0.464600
     15 CB2          0.0750    -0.1380    -1.9710 c5         1 CFY      -0.047600
     16 SG           1.7760    -0.0460    -2.5630 ss         1 CFY      -0.495200
     17 N3          -2.1480     0.1430     0.1240 nd         1 CFY      -0.643300
     18 CA3         -3.1060     0.8600     0.8290 cd         1 CFY       0.011400
     19 C3          -2.5810     2.2160     1.1120 c          1 CFY       0.678700
     20 O3          -3.1050     3.1670     1.6570 o          1 CFY      -0.598500
     21 CB3         -4.3280     0.4490     1.2280 ce         1 CFY      -0.026200
     22 CG2         -4.9830    -0.8230     1.0440 ca         1 CFY      -0.089800
     23 CD3         -4.4340    -1.9000     0.3310 ca         1 CFY      -0.063000
     24 CD4         -6.2540    -0.9980     1.6110 ca         1 CFY      -0.063000
     25 CE3         -5.1240    -3.0860     0.1930 ca         1 CFY      -0.209000
     26 CE4         -6.9520    -2.1810     1.4820 ca         1 CFY      -0.209000
     27 CZ2         -6.3890    -3.2380     0.7660 ca         1 CFY       0.140100
     28 OH          -7.0990    -4.3680     0.6580 oh         1 CFY      -0.500100
     29 N4          -1.3070     2.1750     0.5900 n          1 CFY      -0.358300
     30 CA4         -0.4310     3.3080     0.3900 c3         1 CFY      -0.048000
     31 C           -0.0240     3.4420    -1.0960 c          1 CFY       0.914600
     32 O           -0.8450     3.0520    -1.9350 o          1 CFY      -0.816300
     33 OXT          1.1080     3.9370    -1.3110 o          1 CFY      -0.816300
     34 HN1          1.9720    -1.3170     0.7750 hn         1 CFY       0.351300
     35 HN2          2.4060    -1.9330    -0.6720 hn         1 CFY       0.351300
     36 HA1          3.6170     0.3360     0.6980 h1         1 CFY       0.082700
     37 HO1          2.3510     2.6710    -1.3200 ho         1 CFY       0.503000
     38 HB11         4.3860    -1.0350    -1.9100 hc         1 CFY       0.065200
     39 HB12         5.0170     0.5190    -1.3910 hc         1 CFY       0.065200
     40 HD1          6.4060     0.6900     0.6740 ha         1 CFY       0.132000
     41 HE1          8.1080    -0.4220     2.0610 ha         1 CFY       0.119000
     42 HZ1          8.3730    -2.8860     1.9680 ha         1 CFY       0.117000
     43 HE2          6.9120    -4.2150     0.4760 ha         1 CFY       0.119000
     44 HD2          5.2020    -3.0980    -0.9000 ha         1 CFY       0.132000
     45 HB21        -0.2490    -1.1690    -1.8210 h1         1 CFY       0.100700
     46 HB22        -0.6210     0.3440    -2.6570 h1         1 CFY       0.100700
     47 HB31        -4.9010     1.1890     1.7790 ha         1 CFY       0.134000
     48 HD3         -3.4570    -1.8020    -0.1200 ha         1 CFY       0.150000
     49 HD4         -6.7030    -0.1850     2.1690 ha         1 CFY       0.150000
     50 HE3         -4.6790    -3.9020    -0.3650 ha         1 CFY       0.133000
     51 HE4         -7.9310    -2.2930     1.9290 ha         1 CFY       0.133000
     52 HOH         -6.6250    -5.0220     0.1310 ho         1 CFY       0.423000
     53 HA41        -0.9820     4.2020     0.6940 h1         1 CFY       0.061700
     54 HA42         0.4460     3.2310     1.0290 h1         1 CFY       0.061700
@<TRIPOS>BOND
     1     1     2 1   
     2     1    34 1   
     3     1    35 1   
     4     2     3 1   
     5     2     5 1   
     6     2    36 1   
     7     3     4 1   
     8     3    12 1   
     9     3    16 1   
    10     4    37 1   
    11     5     6 1   
    12     5    38 1   
    13     5    39 1   
    14     6     7 ar  
    15     6    11 ar  
    16     7     8 ar  
    17     7    40 1   
    18     8     9 ar  
    19     8    41 1   
    20     9    10 ar  
    21     9    42 1   
    22    10    11 ar  
    23    10    43 1   
    24    11    44 1   
    25    12    13 2   
    26    13    14 1   
    27    13    15 1   
    28    14    17 2   
    29    14    29 1   
    30    15    16 1   
    31    15    45 1   
    32    15    46 1   
    33    17    18 1   
    34    18    19 1   
    35    18    21 2   
    36    19    20 2   
    37    19    29 1   
    38    21    22 1   
    39    21    47 1   
    40    22    23 ar  
    41    22    24 ar  
    42    23    25 ar  
    43    23    48 1   
    44    24    26 ar  
    45    24    49 1   
    46    25    27 ar  
    47    25    50 1   
    48    26    27 ar  
    49    26    51 1   
    50    27    28 1   
    51    28    52 1   
    52    29    30 1   
    53    30    31 1   
    54    30    53 1   
    55    30    54 1   
    56    31    32 1   
    57    31    33 1   
@<TRIPOS>SUBSTRUCTURE
     1 CFY         1 TEMP              0 ****  ****    0 ROOT
