@<TRIPOS>MOLECULE
CFY
   54    57     1     0     0
SMALL
No Charge or Current Charge


@<TRIPOS>ATOM
      1 N            2.9970    -1.4090     0.6730 n8         1 CFY      -1.012200
      2 CA1          3.4740    -0.2670    -0.1850 c3         1 CFY       0.192500
      3 C1           2.3130     0.4790    -0.9930 c5         1 CFY       0.547200
      4 O1           2.8140     1.6400    -1.5790 oh         1 CFY      -0.651000
      5 CB1          4.6600    -0.7330    -1.0770 c3         1 CFY      -0.027100
      6 CG1          5.8850    -1.1860    -0.2840 ca         1 CFY      -0.050300
      7 CD1          6.6890    -0.2360     0.3790 ca         1 CFY      -0.099500
      8 CE1          7.8240    -0.6460     1.0990 ca         1 CFY      -0.118000
      9 CZ1          8.1660    -2.0070     1.1600 ca         1 CFY      -0.124000
     10 CE2          7.3720    -2.9580     0.4990 ca         1 CFY      -0.118000
     11 CD2          6.2360    -2.5500    -0.2220 ca         1 CFY      -0.099500
     12 N2           1.2410     0.9410    -0.1030 n2         1 CFY      -0.601900
     13 CA2          0.1100     0.3010    -0.2600 ce         1 CFY       0.440000
     14 C2          -1.1950     0.8350     0.2300 cc         1 CFY       0.464600
     15 CB2          0.1640    -0.9020    -1.1930 c5         1 CFY       0.000300
     16 SG           1.5750    -0.5500    -2.3230 ss         1 CFY      -0.591000
     17 N3          -2.2930     0.0670     0.3490 nd         1 CFY      -0.643300
     18 CA3         -3.2210     0.9540     0.8840 cd         1 CFY       0.011400
     19 C3          -2.6820     2.3120     1.0910 c          1 CFY       0.536200
     20 O3          -3.2260     3.3210     1.5240 o          1 CFY      -0.523000
     21 CB3         -4.5180     0.5800     1.1750 ce         1 CFY      -0.076200
     22 CG2         -5.2580    -0.6910     0.9000 ca         1 CFY      -0.089800
     23 CD3         -4.9510    -1.5090    -0.2080 ca         1 CFY      -0.045000
     24 CD4         -6.3130    -1.0660     1.7560 ca         1 CFY      -0.045000
     25 CE3         -5.6780    -2.6910    -0.4430 ca         1 CFY      -0.191000
     26 CE4         -7.0370    -2.2480     1.5190 ca         1 CFY      -0.191000
     27 CZ2         -6.7180    -3.0600     0.4230 ca         1 CFY       0.140100
     28 OH          -7.4240    -4.2020     0.2000 oh         1 CFY      -0.539100
     29 N4          -1.3880     2.1590     0.6480 n          1 CFY      -0.291300
     30 CA4         -0.4620     3.3250     0.4970 c3         1 CFY      -0.048000
     31 C           -0.1360     3.6940    -0.9680 c          1 CFY       0.704000
     32 O           -1.0610     4.0220    -1.6960 o          1 CFY      -0.711000
     33 OXT          1.0190     3.5800    -1.3540 o          1 CFY      -0.711000
     34 HN1          2.2310    -1.0690     1.2640 hn         1 CFY       0.406500
     35 HN2          2.5530    -2.1060     0.0670 hn         1 CFY       0.406500
     36 HA1          3.8780     0.4910     0.5020 h1         1 CFY       0.082700
     37 HO1          2.0790     2.3010    -1.4410 ho         1 CFY       0.542000
     38 HB11         4.3180    -1.5350    -1.7420 hc         1 CFY       0.065200
     39 HB12         4.9560     0.0900    -1.7370 hc         1 CFY       0.065200
     40 HD1          6.4340     0.8200     0.3340 ha         1 CFY       0.114000
     41 HE1          8.4390     0.0930     1.6090 ha         1 CFY       0.101000
     42 HZ1          9.0450    -2.3230     1.7170 ha         1 CFY       0.099000
     43 HE2          7.6360    -4.0130     0.5440 ha         1 CFY       0.101000
     44 HD2          5.6270    -3.2940    -0.7300 ha         1 CFY       0.114000
     45 HB21         0.3470    -1.8240    -0.6270 h1         1 CFY       0.100700
     46 HB22        -0.7700    -1.0290    -1.7570 h1         1 CFY       0.100700
     47 HB31        -5.1180     1.3570     1.6520 ha         1 CFY       0.184000
     48 HD3         -4.1610    -1.2280    -0.8990 ha         1 CFY       0.132000
     49 HD4         -6.5700    -0.4430     2.6110 ha         1 CFY       0.132000
     50 HE3         -5.4280    -3.3100    -1.3010 ha         1 CFY       0.115000
     51 HE4         -7.8460    -2.5310     2.1880 ha         1 CFY       0.115000
     52 HOH         -7.0650    -4.6350    -0.6030 ho         1 CFY       0.462000
     53 HA41        -0.9070     4.2140     0.9600 h1         1 CFY       0.061700
     54 HA42         0.4740     3.1240     1.0310 h1         1 CFY       0.061700
@<TRIPOS>BOND
     1     1     2 1   
     2     1    34 1   
     3     1    35 1   
     4     2     3 1   
     5     2     5 1   
     6     2    36 1   
     7     3     4 1   
     8     3    12 1   
     9     3    16 1   
    10     4    37 1   
    11     5     6 1   
    12     5    38 1   
    13     5    39 1   
    14     6     7 ar  
    15     6    11 ar  
    16     7     8 ar  
    17     7    40 1   
    18     8     9 ar  
    19     8    41 1   
    20     9    10 ar  
    21     9    42 1   
    22    10    11 ar  
    23    10    43 1   
    24    11    44 1   
    25    12    13 2   
    26    13    14 1   
    27    13    15 1   
    28    14    17 2   
    29    14    29 1   
    30    15    16 1   
    31    15    45 1   
    32    15    46 1   
    33    17    18 1   
    34    18    19 1   
    35    18    21 2   
    36    19    20 2   
    37    19    29 1   
    38    21    22 1   
    39    21    47 1   
    40    22    23 ar  
    41    22    24 ar  
    42    23    25 ar  
    43    23    48 1   
    44    24    26 ar  
    45    24    49 1   
    46    25    27 ar  
    47    25    50 1   
    48    26    27 ar  
    49    26    51 1   
    50    27    28 1   
    51    28    52 1   
    52    29    30 1   
    53    30    31 1   
    54    30    53 1   
    55    30    54 1   
    56    31    32 1   
    57    31    33 1   
@<TRIPOS>SUBSTRUCTURE
     1 CFY         1 TEMP              0 ****  ****    0 ROOT
