@<TRIPOS>MOLECULE
CG0
   44    46     1     0     0
SMALL
abcg2


@<TRIPOS>ATOM
      1 C13         26.7600     9.1330   -17.2720 ca         1 CG0       0.419900
      2 C15         26.1950     7.0370   -18.4490 cx         1 CG0       0.173500
      3 C16         26.4190     6.0250   -17.3680 cx         1 CG0      -0.145400
      4 C17         25.1260     6.0430   -18.1220 cx         1 CG0      -0.145400
      5 C03         31.9320     7.8490   -15.5830 c6         1 CG0       0.156800
      6 C04         30.4350     8.0270   -15.4400 c6         1 CG0       0.205800
      7 C06         30.7490    10.3470   -14.9180 c6         1 CG0       0.205800
      8 C07         32.2480    10.1510   -15.0620 c6         1 CG0       0.156800
      9 C08         28.7430     9.6390   -16.1120 ca         1 CG0       0.406900
     10 C10         26.8320    10.7940   -15.7300 ca         1 CG0       0.415900
     11 C18         28.1480     8.9410   -17.1760 ca         1 CG0      -0.309300
     12 C19         28.9660     8.2400   -18.2330 c3         1 CG0       0.008900
     13 C20         28.7720     8.8440   -19.6250 c3         1 CG0      -0.092100
     14 N02         32.6370     8.7930   -14.7400 n3         1 CG0      -0.717600
     15 N05         30.0590     9.3960   -15.7690 nh         1 CG0      -0.766300
     16 N09         28.1030    10.5720   -15.4100 nb         1 CG0      -0.329000
     17 N11         26.2200    11.8510   -15.1300 nv         1 CG0      -1.044900
     18 N12         26.1100    10.0700   -16.5730 nb         1 CG0      -0.341000
     19 N14         25.9650     8.4020   -18.1040 nu         1 CG0      -0.901100
     20 H1          26.7270     6.8700   -19.3820 h1         1 CG0       0.093700
     21 H2          26.4130     6.3800   -16.3460 hc         1 CG0       0.077950
     22 H3          27.1250     5.2280   -17.5620 hc         1 CG0       0.077950
     23 H4          24.9330     5.2590   -18.8430 hc         1 CG0       0.077950
     24 H5          24.2450     6.4020   -17.6040 hc         1 CG0       0.077950
     25 H6          34.3350     7.5950   -14.5430 h1         1 CG0       0.030367
     26 H7          34.4760     8.8120   -15.8220 h1         1 CG0       0.030367
     27 H8          34.5670     9.2910   -14.1190 h1         1 CG0       0.030367
     28 H9          32.2090     7.9620   -16.6470 h1         1 CG0       0.038450
     29 H10         32.2010     6.8330   -15.2850 h1         1 CG0       0.038450
     30 H11         30.1400     7.7980   -14.4060 h1         1 CG0       0.052450
     31 H12         29.9160     7.3200   -16.0840 h1         1 CG0       0.052450
     32 H13         30.4610    10.2330   -13.8640 h1         1 CG0       0.052450
     33 H14         30.4910    11.3610   -15.2180 h1         1 CG0       0.052450
     34 H15         32.5480    10.4260   -16.0890 h1         1 CG0       0.038450
     35 H16         32.7590    10.8390   -14.3840 h1         1 CG0       0.038450
     36 H17         28.7830     7.1640   -18.2680 hc         1 CG0       0.039700
     37 H18         30.0210     8.3520   -17.9840 hc         1 CG0       0.039700
     38 H19         29.4020     8.3310   -20.3530 hc         1 CG0       0.033367
     39 H20         27.7420     8.7780   -19.9760 hc         1 CG0       0.033367
     40 H21         29.0530     9.8980   -19.6270 hc         1 CG0       0.033367
     41 H23         25.2140    11.8580   -15.1330 hn         1 CG0       0.479500
     42 H24         26.6490    12.2060   -14.2930 hn         1 CG0       0.479500
     43 H25         25.0020     8.7030   -18.1020 hn         1 CG0       0.491000
     44 C01         34.0680     8.6170   -14.8170 c3         1 CG0       0.153100
@<TRIPOS>BOND
     1     1    11 ar  
     2     1    18 ar  
     3     1    19 1   
     4     2     3 1   
     5     2     4 1   
     6     2    19 1   
     7     2    20 1   
     8     3     4 1   
     9     3    21 1   
    10     3    22 1   
    11     4    23 1   
    12     4    24 1   
    13     5     6 1   
    14     5    14 1   
    15     5    28 1   
    16     5    29 1   
    17     6    15 1   
    18     6    30 1   
    19     6    31 1   
    20     7     8 1   
    21     7    15 1   
    22     7    32 1   
    23     7    33 1   
    24     8    14 1   
    25     8    34 1   
    26     8    35 1   
    27     9    11 ar  
    28     9    15 1   
    29     9    16 ar  
    30    10    16 ar  
    31    10    17 1   
    32    10    18 ar  
    33    11    12 1   
    34    12    13 1   
    35    12    36 1   
    36    12    37 1   
    37    13    38 1   
    38    13    39 1   
    39    13    40 1   
    40    14    44 1   
    41    17    41 1   
    42    17    42 1   
    43    19    43 1   
    44    25    44 1   
    45    26    44 1   
    46    27    44 1   
@<TRIPOS>SUBSTRUCTURE
     1 CG0         1 TEMP              0 ****  ****    0 ROOT
