@<TRIPOS>MOLECULE
CG0
   44    46     1     0     0
SMALL
No Charge or Current Charge


@<TRIPOS>ATOM
      1 C13         26.6440     8.9510   -16.9870 ca         1 CG0       0.419900
      2 C15         25.8960     7.2790   -18.7880 cx         1 CG0       0.173500
      3 C16         25.7120     5.8950   -18.2150 cx         1 CG0      -0.145400
      4 C17         24.6510     6.4900   -19.1060 cx         1 CG0      -0.145400
      5 C03         32.1420     8.0030   -15.0080 c6         1 CG0       0.156800
      6 C04         30.6120     8.2540   -14.7990 c6         1 CG0       0.205800
      7 C06         30.9210    10.6000   -15.5500 c6         1 CG0       0.205800
      8 C07         32.4470    10.3170   -15.7480 c6         1 CG0       0.156800
      9 C08         28.7100     9.4560   -15.8810 ca         1 CG0       0.406900
     10 C10         26.7560    10.4150   -15.2570 ca         1 CG0       0.415900
     11 C18         28.0450     8.7270   -16.8970 ca         1 CG0      -0.309300
     12 C19         28.8480     7.8290   -17.8540 c3         1 CG0       0.008900
     13 C20         29.2310     8.5650   -19.1520 c3         1 CG0      -0.092100
     14 N02         32.9600     9.2440   -14.8410 n3         1 CG0      -0.717600
     15 N05         30.0970     9.3560   -15.6660 nh         1 CG0      -0.766300
     16 N09         28.0640    10.2990   -15.0610 nb         1 CG0      -0.329000
     17 N11         26.1030    11.2610   -14.4320 nv         1 CG0      -1.044900
     18 N12         26.0090     9.7960   -16.1660 nb         1 CG0      -0.341000
     19 N14         25.7440     8.3910   -17.8930 nu         1 CG0      -0.901100
     20 H1          26.6160     7.4140   -19.5980 h1         1 CG0       0.093700
     21 H2          25.4960     5.8080   -17.1530 hc         1 CG0       0.077950
     22 H3          26.3290     5.0980   -18.6220 hc         1 CG0       0.077950
     23 H4          24.5530     6.0920   -20.1130 hc         1 CG0       0.077950
     24 H5          23.7140     6.7920   -18.6450 hc         1 CG0       0.077950
     25 H6          34.7580     8.2420   -14.2930 h1         1 CG0       0.030367
     26 H7          34.6330     8.6460   -16.0220 h1         1 CG0       0.030367
     27 H8          34.9790     9.9210   -14.8300 h1         1 CG0       0.030367
     28 H9          32.2890     7.5890   -16.0170 h1         1 CG0       0.038450
     29 H10         32.4690     7.2320   -14.2950 h1         1 CG0       0.038450
     30 H11         30.4370     8.5020   -13.7420 h1         1 CG0       0.052450
     31 H12         30.0720     7.3190   -15.0070 h1         1 CG0       0.052450
     32 H13         30.7750    11.0560   -14.5590 h1         1 CG0       0.052450
     33 H14         30.6030    11.3370   -16.3010 h1         1 CG0       0.052450
     34 H15         32.6110    10.0310   -16.7980 h1         1 CG0       0.038450
     35 H16         33.0000    11.2530   -15.5820 h1         1 CG0       0.038450
     36 H17         28.3170     6.9040   -18.0890 hc         1 CG0       0.039700
     37 H18         29.7740     7.4760   -17.3890 hc         1 CG0       0.039700
     38 H19         29.7680     7.8910   -19.8300 hc         1 CG0       0.033367
     39 H20         28.3420     8.9410   -19.6710 hc         1 CG0       0.033367
     40 H21         29.8830     9.4180   -18.9290 hc         1 CG0       0.033367
     41 H23         25.0890    11.2080   -14.3970 hn         1 CG0       0.479500
     42 H24         26.5780    11.5780   -13.5920 hn         1 CG0       0.479500
     43 H25         24.8150     8.7960   -17.7870 hn         1 CG0       0.491000
     44 C01         34.4080     9.0000   -15.0070 c3         1 CG0       0.153100
@<TRIPOS>BOND
     1     1    11 ar  
     2     1    18 ar  
     3     1    19 1   
     4     2     3 1   
     5     2     4 1   
     6     2    19 1   
     7     2    20 1   
     8     3     4 1   
     9     3    21 1   
    10     3    22 1   
    11     4    23 1   
    12     4    24 1   
    13     5     6 1   
    14     5    14 1   
    15     5    28 1   
    16     5    29 1   
    17     6    15 1   
    18     6    30 1   
    19     6    31 1   
    20     7     8 1   
    21     7    15 1   
    22     7    32 1   
    23     7    33 1   
    24     8    14 1   
    25     8    34 1   
    26     8    35 1   
    27     9    11 ar  
    28     9    15 1   
    29     9    16 ar  
    30    10    16 ar  
    31    10    17 1   
    32    10    18 ar  
    33    11    12 1   
    34    12    13 1   
    35    12    36 1   
    36    12    37 1   
    37    13    38 1   
    38    13    39 1   
    39    13    40 1   
    40    14    44 1   
    41    17    41 1   
    42    17    42 1   
    43    19    43 1   
    44    25    44 1   
    45    26    44 1   
    46    27    44 1   
@<TRIPOS>SUBSTRUCTURE
     1 CG0         1 TEMP              0 ****  ****    0 ROOT
