@<TRIPOS>MOLECULE
CG2
   64    68     1     0     0
SMALL
abcg2


@<TRIPOS>ATOM
      1 N1G          8.5900    45.1530    -1.5080 ns         1 CG2      -0.460400
      2 C2G          7.4560    44.3840    -1.5190 cc         1 CG2       0.701800
      3 N2G          7.3460    43.4560    -2.4940 nv         1 CG2      -1.054200
      4 N3G          6.4760    44.5450    -0.6520 nd         1 CG2      -0.695100
      5 C4G          6.6940    45.5450     0.2220 cd         1 CG2       0.115400
      6 C5G          7.8100    46.3710     0.3230 cc         1 CG2       0.101500
      7 C6G          8.8760    46.1970    -0.6050 c          1 CG2       0.515500
      8 O6G          9.9350    46.8150    -0.6970 o          1 CG2      -0.529000
      9 N7G          7.6510    47.2720     1.3600 nc         1 CG2      -0.606000
     10 C8G          6.4750    47.0030     1.8680 cd         1 CG2       0.443400
     11 N9G          5.8430    45.9610     1.2130 na         1 CG2      -0.195500
     12 CA           4.5250    45.3980     1.4900 c5         1 CG2       0.283300
     13 CB           4.5390    44.3420     2.6050 c5         1 CG2       0.090300
     14 OB           3.5840    43.3110     2.3890 oh         1 CG2      -0.723000
     15 CC           4.1890    45.1780     3.8460 c5         1 CG2       0.108300
     16 OC           3.6750    44.4290     4.9230 oh         1 CG2      -0.688000
     17 CD           3.2100    46.2100     3.2700 c5         1 CG2       0.124300
     18 OD           3.6600    46.4290     1.9180 os         1 CG2      -0.437000
     19 CE           3.1350    47.5280     4.0010 c3         1 CG2       0.226600
     20 OE           4.4500    48.0670     4.1300 os         1 CG2      -0.624400
     21 P            4.6960    49.5430     4.7590 p5         1 CG2       1.386800
     22 O1P          3.8490    49.7530     5.9660 o          1 CG2      -0.796000
     23 O2P          6.1760    49.7120     4.7860 o          1 CG2      -0.796000
     24 O5           3.1320    54.4980    -0.1190 oh         1 CG2      -0.730000
     25 C5           4.2670    53.9130     0.5150 c3         1 CG2       0.169600
     26 C4           3.9170    52.7120     1.3600 c5         1 CG2       0.090300
     27 O4           3.4840    51.6480     0.5050 os         1 CG2      -0.489000
     28 C3           5.1030    52.1020     2.1140 c5         1 CG2       0.140300
     29 O3           5.4510    52.7820     3.2960 oh         1 CG2      -0.701000
     30 C2           4.6530    50.6380     2.3290 c5         1 CG2       0.163300
     31 O2           4.0390    50.5160     3.6090 os         1 CG2      -0.597400
     32 C1           3.5820    50.4220     1.2360 c5         1 CG2       0.289700
     33 N1U          3.8400    49.3560     0.2930 n          1 CG2      -0.301000
     34 C2U          2.7690    48.5150    -0.1090 c          1 CG2       0.729400
     35 O2U          1.6570    48.6730     0.3960 o          1 CG2      -0.557000
     36 N3U          3.0220    47.5710    -1.0470 nc         1 CG2      -0.781100
     37 C4U          4.2250    47.4590    -1.5960 cd         1 CG2       0.779500
     38 C5U          5.3100    48.3190    -1.2410 cd         1 CG2      -0.495600
     39 C6U          5.0620    49.2500    -0.2980 cc         1 CG2       0.045600
     40 N4C          4.4070    46.5130    -2.5280 nv         1 CG2      -1.039200
     41 HNG1         9.3030    44.9820    -2.2060 hn         1 CG2       0.314500
     42 H2G1         8.1600    43.1590    -3.0070 hn         1 CG2       0.494000
     43 H2G2         6.5950    42.7900    -2.4040 hn         1 CG2       0.494000
     44 H8G          6.0000    47.5160     2.6880 h5         1 CG2       0.119100
     45 HC           4.1700    44.9680     0.5530 h2         1 CG2       0.100700
     46 HCA          5.5050    43.8490     2.6840 h1         1 CG2       0.107700
     47 HO           2.7450    43.6850     2.0870 ho         1 CG2       0.509000
     48 HCB          5.0820    45.6880     4.2050 h1         1 CG2       0.126700
     49 HOA          3.1250    43.7240     4.5480 ho         1 CG2       0.500000
     50 HCC          2.2000    45.7840     3.2480 h1         1 CG2       0.043700
     51 HC'1         2.4950    48.2180     3.4480 h1         1 CG2       0.053700
     52 HC'2         2.6970    47.3620     4.9890 h1         1 CG2       0.053700
     53 HOB          2.7540    53.8420    -0.7180 ho         1 CG2       0.509000
     54 HCA1         5.0210    53.6200    -0.2250 h1         1 CG2       0.049700
     55 HCA2         4.6940    54.6820     1.1590 h1         1 CG2       0.049700
     56 HCE          5.9800    52.1120     1.4630 h1         1 CG2       0.066700
     57 HCG          5.4830    49.9430     2.2440 h1         1 CG2       0.076700
     58 HCF          2.6340    50.1910     1.7140 h2         1 CG2       0.120700
     59 H5U          6.2840    48.2230    -1.6960 ha         1 CG2       0.201000
     60 H6U          5.8190    49.9500     0.0260 h4         1 CG2       0.212000
     61 H4C1         3.6700    45.8520    -2.7130 hn         1 CG2       0.492000
     62 H4C2         5.3250    46.3190    -2.8920 hn         1 CG2       0.492000
     63 HCD          3.1230    52.9710     2.0720 h1         1 CG2       0.073700
     64 HOC          4.8480    52.4720     3.9890 ho         1 CG2       0.534000
@<TRIPOS>BOND
     1     1     2 1   
     2     1     7 1   
     3     1    41 1   
     4     2     3 1   
     5     2     4 2   
     6     3    42 1   
     7     3    43 1   
     8     4     5 1   
     9     5     6 2   
    10     5    11 1   
    11     6     7 1   
    12     6     9 1   
    13     7     8 2   
    14     9    10 2   
    15    10    11 1   
    16    10    44 1   
    17    11    12 1   
    18    12    13 1   
    19    12    18 1   
    20    12    45 1   
    21    13    14 1   
    22    13    15 1   
    23    13    46 1   
    24    14    47 1   
    25    15    16 1   
    26    15    17 1   
    27    15    48 1   
    28    16    49 1   
    29    17    18 1   
    30    17    19 1   
    31    17    50 1   
    32    19    20 1   
    33    19    51 1   
    34    19    52 1   
    35    20    21 1   
    36    21    22 1   
    37    21    23 1   
    38    21    31 1   
    39    24    25 1   
    40    24    53 1   
    41    25    26 1   
    42    25    54 1   
    43    25    55 1   
    44    26    27 1   
    45    26    28 1   
    46    26    63 1   
    47    27    32 1   
    48    28    29 1   
    49    28    30 1   
    50    28    56 1   
    51    29    64 1   
    52    30    31 1   
    53    30    32 1   
    54    30    57 1   
    55    32    33 1   
    56    32    58 1   
    57    33    34 1   
    58    33    39 1   
    59    34    35 2   
    60    34    36 1   
    61    36    37 2   
    62    37    38 1   
    63    37    40 1   
    64    38    39 2   
    65    38    59 1   
    66    39    60 1   
    67    40    61 1   
    68    40    62 1   
@<TRIPOS>SUBSTRUCTURE
     1 CG2         1 TEMP              0 ****  ****    0 ROOT
