@<TRIPOS>MOLECULE
CG2
   64    68     1     0     0
SMALL
No Charge or Current Charge


@<TRIPOS>ATOM
      1 N1G          8.7440    45.3380    -1.5250 ns         1 CG2      -0.460400
      2 C2G          7.5510    44.7080    -1.6000 cc         1 CG2       0.701800
      3 N2G          7.3920    43.8860    -2.6180 nv         1 CG2      -1.054200
      4 N3G          6.5210    44.8460    -0.7960 nd         1 CG2      -0.695100
      5 C4G          6.7740    45.7340     0.2510 cd         1 CG2       0.115400
      6 C5G          7.9500    46.4160     0.4120 cc         1 CG2       0.101500
      7 C6G          9.0650    46.2290    -0.5480 c          1 CG2       0.515500
      8 O6G         10.1550    46.7840    -0.5100 o          1 CG2      -0.529000
      9 N7G          7.8940    47.2260     1.5210 nc         1 CG2      -0.606000
     10 C8G          6.6760    47.0380     2.0330 cd         1 CG2       0.443400
     11 N9G          5.9470    46.1200     1.2800 na         1 CG2      -0.195500
     12 CA           4.5800    45.6660     1.5200 c5         1 CG2       0.283300
     13 CB           4.4340    44.4460     2.5000 c5         1 CG2       0.090300
     14 OB           3.2780    43.6120     2.2350 oh         1 CG2      -0.723000
     15 CC           4.2660    45.2000     3.8500 c5         1 CG2       0.108300
     16 OC           3.7130    44.3220     4.8390 oh         1 CG2      -0.688000
     17 CD           3.2940    46.3280     3.3970 c5         1 CG2       0.124300
     18 OD           3.8190    46.7500     2.1130 os         1 CG2      -0.437000
     19 CE           3.1700    47.5230     4.3810 c3         1 CG2       0.226600
     20 OE           4.3930    48.2780     4.3670 os         1 CG2      -0.624400
     21 P            4.3340    49.8410     4.7310 p5         1 CG2       1.386800
     22 O1P          3.5030    50.0890     5.9410 o          1 CG2      -0.796000
     23 O2P          5.6990    50.4270     4.8460 o          1 CG2      -0.796000
     24 O5           3.3540    54.5650     0.0640 oh         1 CG2      -0.730000
     25 C5           4.4780    53.9240     0.6880 c3         1 CG2       0.169600
     26 C4           4.0260    52.5980     1.3470 c5         1 CG2       0.090300
     27 O4           3.4950    51.7030     0.3440 os         1 CG2      -0.489000
     28 C3           5.1690    51.7430     1.9600 c5         1 CG2       0.140300
     29 O3           5.7710    52.3200     3.1310 oh         1 CG2      -0.701000
     30 C2           4.4080    50.3700     2.1610 c5         1 CG2       0.163300
     31 O2           3.6220    50.3780     3.3890 os         1 CG2      -0.597400
     32 C1           3.3650    50.4100     0.9780 c5         1 CG2       0.289700
     33 N1U          3.6500    49.3250    -0.0010 n          1 CG2      -0.301000
     34 C2U          2.6160    48.4200    -0.3190 c          1 CG2       0.729400
     35 O2U          1.4850    48.5380     0.1240 o          1 CG2      -0.557000
     36 N3U          2.8970    47.3740    -1.1560 nc         1 CG2      -0.781100
     37 C4U          4.0840    47.2330    -1.6320 cd         1 CG2       0.779500
     38 C5U          5.1600    48.1020    -1.3800 cd         1 CG2      -0.495600
     39 C6U          4.9200    49.1730    -0.5550 cc         1 CG2       0.045600
     40 N4C          4.2640    46.1540    -2.3570 nv         1 CG2      -1.039200
     41 HNG1         9.4400    45.1670    -2.2320 hn         1 CG2       0.314500
     42 H2G1         8.2310    43.4640    -2.9970 hn         1 CG2       0.494000
     43 H2G2         6.6030    43.2590    -2.5230 hn         1 CG2       0.494000
     44 H8G          6.2700    47.5120     2.9190 h5         1 CG2       0.119100
     45 HC           4.1770    45.4150     0.5320 h2         1 CG2       0.100700
     46 HCA          5.3520    43.8390     2.4980 h1         1 CG2       0.107700
     47 HO           2.6280    44.1420     1.7140 ho         1 CG2       0.509000
     48 HCB          5.2200    45.6310     4.1920 h1         1 CG2       0.126700
     49 HOA          3.2740    43.6140     4.3060 ho         1 CG2       0.500000
     50 HCC          2.2860    45.9230     3.2360 h1         1 CG2       0.043700
     51 HC'1         2.3180    48.1400     4.0640 h1         1 CG2       0.053700
     52 HC'2         2.9560    47.1430     5.3880 h1         1 CG2       0.053700
     53 HOB          2.8680    53.8380    -0.3930 ho         1 CG2       0.509000
     54 HCA1         5.2600    53.7050    -0.0530 h1         1 CG2       0.049700
     55 HCA2         4.9180    54.5750     1.4570 h1         1 CG2       0.049700
     56 HCE          5.9500    51.6070     1.2000 h1         1 CG2       0.066700
     57 HCG          5.0700    49.4940     2.1280 h1         1 CG2       0.076700
     58 HCF          2.3500    50.2800     1.3760 h2         1 CG2       0.120700
     59 H5U          6.1320    47.9300    -1.8240 ha         1 CG2       0.201000
     60 H6U          5.6320    49.9480    -0.2850 h4         1 CG2       0.212000
     61 H4C1         3.4440    45.5660    -2.3450 hn         1 CG2       0.492000
     62 H4C2         5.1210    45.6630    -2.1220 hn         1 CG2       0.492000
     63 HCD          3.2480    52.8110     2.0950 h1         1 CG2       0.073700
     64 HOC          5.8100    51.5890     3.8270 ho         1 CG2       0.534000
@<TRIPOS>BOND
     1     1     2 1   
     2     1     7 1   
     3     1    41 1   
     4     2     3 1   
     5     2     4 2   
     6     3    42 1   
     7     3    43 1   
     8     4     5 1   
     9     5     6 2   
    10     5    11 1   
    11     6     7 1   
    12     6     9 1   
    13     7     8 2   
    14     9    10 2   
    15    10    11 1   
    16    10    44 1   
    17    11    12 1   
    18    12    13 1   
    19    12    18 1   
    20    12    45 1   
    21    13    14 1   
    22    13    15 1   
    23    13    46 1   
    24    14    47 1   
    25    15    16 1   
    26    15    17 1   
    27    15    48 1   
    28    16    49 1   
    29    17    18 1   
    30    17    19 1   
    31    17    50 1   
    32    19    20 1   
    33    19    51 1   
    34    19    52 1   
    35    20    21 1   
    36    21    22 1   
    37    21    23 1   
    38    21    31 1   
    39    24    25 1   
    40    24    53 1   
    41    25    26 1   
    42    25    54 1   
    43    25    55 1   
    44    26    27 1   
    45    26    28 1   
    46    26    63 1   
    47    27    32 1   
    48    28    29 1   
    49    28    30 1   
    50    28    56 1   
    51    29    64 1   
    52    30    31 1   
    53    30    32 1   
    54    30    57 1   
    55    32    33 1   
    56    32    58 1   
    57    33    34 1   
    58    33    39 1   
    59    34    35 2   
    60    34    36 1   
    61    36    37 2   
    62    37    38 1   
    63    37    40 1   
    64    38    39 2   
    65    38    59 1   
    66    39    60 1   
    67    40    61 1   
    68    40    62 1   
@<TRIPOS>SUBSTRUCTURE
     1 CG2         1 TEMP              0 ****  ****    0 ROOT
