@<TRIPOS>MOLECULE
CG4
   60    64     1     0     0
SMALL
No Charge or Current Charge


@<TRIPOS>ATOM
      1 O18         -9.3480    -0.2950     1.5200 o          1 CG4      -0.720500
      2 C16         -9.0350    -1.3610     1.0080 c          1 CG4       0.713600
      3 O17         -9.8580    -2.2000     0.6710 o          1 CG4      -0.720500
      4 C7          -7.5610    -1.6540     0.7820 ca         1 CG4      -0.143600
      5 C5          -7.1460    -2.8710     0.1950 ca         1 CG4      -0.067500
      6 C3          -5.7820    -3.1380    -0.0120 ca         1 CG4      -0.172000
      7 C6          -6.5690    -0.7180     1.1530 ca         1 CG4      -0.067500
      8 C4          -5.2050    -0.9890     0.9450 ca         1 CG4      -0.172000
      9 C2          -4.7980    -2.2060     0.3590 ca         1 CG4      -0.072000
     10 N1          -3.4390    -2.5540     0.1140 ns         1 CG4      -0.127000
     11 C8          -2.2330    -1.9050     0.3690 c          1 CG4       0.610700
     12 O9          -2.1580    -0.8080     0.9140 o          1 CG4      -0.593100
     13 C15         -0.9810    -2.6460    -0.0700 ca         1 CG4      -0.149600
     14 C13         -1.0360    -3.9160    -0.6940 ca         1 CG4      -0.074000
     15 C11          0.1440    -4.5590    -1.0960 ca         1 CG4      -0.129000
     16 C14          0.2850    -2.0530     0.1440 ca         1 CG4      -0.020000
     17 C12          1.4820    -2.7070    -0.2310 ca         1 CG4      -0.157500
     18 C10          1.3930    -3.9590    -0.8770 ca         1 CG4      -0.086000
     19 C24          2.7800    -2.0420    -0.0340 cc         1 CG4       0.440500
     20 C22          3.8540    -2.8810     0.2690 cd         1 CG4      -0.229000
     21 N23          2.8290    -0.6530    -0.1130 nc         1 CG4      -0.761000
     22 C21          4.0090    -0.1080     0.0950 cd         1 CG4       0.687900
     23 C19          5.1600    -0.8840     0.4020 cd         1 CG4      -0.180000
     24 N27          6.4050    -0.5250     0.6890 nc         1 CG4      -0.288600
     25 C26          7.0690    -1.7120     0.9340 cc         1 CG4      -0.052400
     26 C25          6.2370    -2.8090     0.8020 cd         1 CG4      -0.269100
     27 N20          5.0570    -2.2240     0.4400 na         1 CG4       0.173100
     28 N28          4.1150     1.2440     0.0790 nu         1 CG4      -0.915900
     29 C33          3.2820     2.3140    -0.2540 ca         1 CG4       0.293000
     30 C31          3.6470     3.5840     0.2150 ca         1 CG4      -0.227000
     31 C29          2.8600     4.7190    -0.0890 ca         1 CG4       0.131100
     32 O36          3.1970     5.9820     0.3720 os         1 CG4      -0.321100
     33 C37          4.3570     6.2270     1.1850 c3         1 CG4       0.147900
     34 C34          2.1320     2.1820    -1.0570 ca         1 CG4      -0.118000
     35 C32          1.3400     3.3020    -1.3680 ca         1 CG4      -0.138000
     36 C30          1.6980     4.5790    -0.8820 ca         1 CG4       0.091100
     37 O35          0.9440     5.7060    -1.1660 os         1 CG4      -0.327100
     38 C38         -0.2540     5.6570    -1.9630 c3         1 CG4       0.141900
     39 H2          -7.8810    -3.6150    -0.1040 ha         1 CG4       0.129000
     40 H3          -5.4910    -4.0830    -0.4660 ha         1 CG4       0.102000
     41 H4          -6.8530     0.2290     1.6070 ha         1 CG4       0.129000
     42 H5          -4.4850    -0.2360     1.2450 ha         1 CG4       0.102000
     43 H6          -3.3320    -3.4530    -0.3360 hn         1 CG4       0.139000
     44 H7          -1.9820    -4.4170    -0.8840 ha         1 CG4       0.120000
     45 H8           0.0900    -5.5270    -1.5890 ha         1 CG4       0.113000
     46 H9           0.3430    -1.0750     0.6190 ha         1 CG4       0.157000
     47 H10          2.2870    -4.4720    -1.2240 ha         1 CG4       0.105000
     48 H11          3.8270    -3.9560     0.3770 h4         1 CG4       0.152000
     49 H12          8.1230    -1.6990     1.2050 h4         1 CG4       0.225000
     50 H13          6.3910    -3.8760     0.9260 h4         1 CG4       0.231000
     51 H14          5.0280     1.5100     0.4350 hn         1 CG4       0.518000
     52 H15          4.5400     3.6760     0.8230 ha         1 CG4       0.113000
     53 H16          4.3020     5.6620     2.1240 h1         1 CG4       0.036367
     54 H17          5.2740     5.9400     0.6530 h1         1 CG4       0.036367
     55 H18          4.4280     7.2930     1.4330 h1         1 CG4       0.036367
     56 H19          1.8470     1.2170    -1.4600 ha         1 CG4       0.157000
     57 H20          0.4600     3.1570    -1.9890 ha         1 CG4       0.138000
     58 H21         -0.6890     6.6600    -2.0570 h1         1 CG4       0.043367
     59 H22         -0.0360     5.2850    -2.9730 h1         1 CG4       0.043367
     60 H23         -1.0040     5.0030    -1.5000 h1         1 CG4       0.043367
@<TRIPOS>BOND
     1     1     2 1   
     2     2     3 1   
     3     2     4 1   
     4     4     5 ar  
     5     4     7 ar  
     6     5     6 ar  
     7     5    39 1   
     8     6     9 ar  
     9     6    40 1   
    10     7     8 ar  
    11     7    41 1   
    12     8     9 ar  
    13     8    42 1   
    14     9    10 1   
    15    10    11 1   
    16    10    43 1   
    17    11    12 2   
    18    11    13 1   
    19    13    14 ar  
    20    13    16 ar  
    21    14    15 ar  
    22    14    44 1   
    23    15    18 ar  
    24    15    45 1   
    25    16    17 ar  
    26    16    46 1   
    27    17    18 ar  
    28    17    19 1   
    29    18    47 1   
    30    19    20 2   
    31    19    21 1   
    32    20    27 1   
    33    20    48 1   
    34    21    22 2   
    35    22    23 1   
    36    22    28 1   
    37    23    24 2   
    38    23    27 1   
    39    24    25 1   
    40    25    26 2   
    41    25    49 1   
    42    26    27 1   
    43    26    50 1   
    44    28    29 1   
    45    28    51 1   
    46    29    30 ar  
    47    29    34 ar  
    48    30    31 ar  
    49    30    52 1   
    50    31    32 1   
    51    31    36 ar  
    52    32    33 1   
    53    33    53 1   
    54    33    54 1   
    55    33    55 1   
    56    34    35 ar  
    57    34    56 1   
    58    35    36 ar  
    59    35    57 1   
    60    36    37 1   
    61    37    38 1   
    62    38    58 1   
    63    38    59 1   
    64    38    60 1   
@<TRIPOS>SUBSTRUCTURE
     1 CG4         1 TEMP              0 ****  ****    0 ROOT
