@<TRIPOS>MOLECULE
CG4
   60    64     1     0     0
SMALL
bcc


@<TRIPOS>ATOM
      1 O18         -8.8460     0.5680     0.5520 o          1 CG4      -0.825800
      2 C16         -8.6270    -0.6570     0.6270 c          1 CG4       0.924200
      3 O17         -9.4730    -1.5560     0.8010 o          1 CG4      -0.825800
      4 C7          -7.1800    -1.1020     0.4860 ca         1 CG4      -0.143600
      5 C5          -6.8300    -2.4480     0.5570 ca         1 CG4      -0.085500
      6 C3          -5.5160    -2.8550     0.4170 ca         1 CG4      -0.190000
      7 C6          -6.1590    -0.1830     0.2770 ca         1 CG4      -0.085500
      8 C4          -4.8320    -0.5680     0.1350 ca         1 CG4      -0.190000
      9 C2          -4.4980    -1.9220     0.2010 ca         1 CG4       0.020600
     10 N1          -3.2040    -2.4330     0.0600 ns         1 CG4      -0.453100
     11 C8          -2.0470    -1.7830    -0.2150 c          1 CG4       0.677700
     12 O9          -1.9480    -0.5710    -0.3070 o          1 CG4      -0.593100
     13 C15         -0.8520    -2.6660    -0.3960 ca         1 CG4      -0.149600
     14 C13         -0.9360    -3.9840    -0.8380 ca         1 CG4      -0.092000
     15 C11          0.2240    -4.7220    -1.0210 ca         1 CG4      -0.147000
     16 C14          0.3960    -2.1040    -0.1530 ca         1 CG4      -0.038000
     17 C12          1.5650    -2.8400    -0.3210 ca         1 CG4      -0.157500
     18 C10          1.4640    -4.1590    -0.7670 ca         1 CG4      -0.104000
     19 C24          2.8690    -2.2010    -0.0490 cc         1 CG4       0.505800
     20 C22          3.9760    -2.9360     0.2290 cd         1 CG4      -0.261600
     21 N23          2.8720    -0.8370    -0.0760 nc         1 CG4      -0.761000
     22 C21          3.9750    -0.1870     0.1600 cd         1 CG4       0.753200
     23 C19          5.1930    -0.8870     0.4400 cd         1 CG4      -0.194600
     24 N27          6.4000    -0.4330     0.6960 nc         1 CG4      -0.288600
     25 C26          7.1530    -1.5410     0.8940 cc         1 CG4      -0.002400
     26 C25          6.4030    -2.6840     0.7590 cd         1 CG4      -0.219100
     27 N20          5.1440    -2.2510     0.4650 na         1 CG4       0.071700
     28 N28          4.0550     1.1620     0.1580 nu         1 CG4      -0.722300
     29 C33          3.0640     2.1230    -0.0490 ca         1 CG4       0.154600
     30 C31          3.4430     3.4540     0.1860 ca         1 CG4      -0.245000
     31 C29          2.5510     4.4940     0.0060 ca         1 CG4       0.131100
     32 O36          2.8380     5.7900     0.2140 os         1 CG4      -0.297900
     33 C37          4.1390     6.1290     0.6500 c3         1 CG4       0.124700
     34 C34          1.7720     1.8570    -0.4710 ca         1 CG4      -0.136000
     35 C32          0.8720     2.9090    -0.6490 ca         1 CG4      -0.156000
     36 C30          1.2340     4.2220    -0.4190 ca         1 CG4       0.091100
     37 O35          0.4300     5.2950    -0.5650 os         1 CG4      -0.303900
     38 C38         -0.9010     5.0660    -0.9760 c3         1 CG4       0.118700
     39 H2          -7.5980    -3.1930     0.7180 ha         1 CG4       0.147000
     40 H3          -5.2750    -3.9110     0.4690 ha         1 CG4       0.120000
     41 H4          -6.3990     0.8710     0.2220 ha         1 CG4       0.147000
     42 H5          -4.0770     0.1840    -0.0210 ha         1 CG4       0.120000
     43 H6          -3.1380    -3.4300     0.1970 hn         1 CG4       0.305500
     44 H7          -1.8870    -4.4410    -1.0790 ha         1 CG4       0.138000
     45 H8           0.1620    -5.7390    -1.3860 ha         1 CG4       0.131000
     46 H9           0.4610    -1.0800     0.1850 ha         1 CG4       0.175000
     47 H10          2.3530    -4.7500    -0.9440 ha         1 CG4       0.123000
     48 H11          4.0170    -4.0120     0.2950 h4         1 CG4       0.170000
     49 H12          8.2050    -1.4800     1.1250 h4         1 CG4       0.175000
     50 H13          6.6500    -3.7280     0.8420 h4         1 CG4       0.181000
     51 H14          4.9690     1.5260     0.3860 hn         1 CG4       0.462800
     52 H15          4.4560     3.6570     0.5140 ha         1 CG4       0.131000
     53 H16          4.3820     5.6630     1.6090 h1         1 CG4       0.036367
     54 H17          4.9010     5.8490    -0.0820 h1         1 CG4       0.036367
     55 H18          4.1520     7.2090     0.7720 h1         1 CG4       0.036367
     56 H19          1.4470     0.8500    -0.6690 ha         1 CG4       0.175000
     57 H20         -0.1290     2.6620    -0.9770 ha         1 CG4       0.156000
     58 H21         -1.3830     6.0400    -1.0240 h1         1 CG4       0.043367
     59 H22         -0.9500     4.6010    -1.9650 h1         1 CG4       0.043367
     60 H23         -1.4460     4.4370    -0.2670 h1         1 CG4       0.043367
@<TRIPOS>BOND
     1     1     2 1   
     2     2     3 1   
     3     2     4 1   
     4     4     5 ar  
     5     4     7 ar  
     6     5     6 ar  
     7     5    39 1   
     8     6     9 ar  
     9     6    40 1   
    10     7     8 ar  
    11     7    41 1   
    12     8     9 ar  
    13     8    42 1   
    14     9    10 1   
    15    10    11 1   
    16    10    43 1   
    17    11    12 2   
    18    11    13 1   
    19    13    14 ar  
    20    13    16 ar  
    21    14    15 ar  
    22    14    44 1   
    23    15    18 ar  
    24    15    45 1   
    25    16    17 ar  
    26    16    46 1   
    27    17    18 ar  
    28    17    19 1   
    29    18    47 1   
    30    19    20 2   
    31    19    21 1   
    32    20    27 1   
    33    20    48 1   
    34    21    22 2   
    35    22    23 1   
    36    22    28 1   
    37    23    24 2   
    38    23    27 1   
    39    24    25 1   
    40    25    26 2   
    41    25    49 1   
    42    26    27 1   
    43    26    50 1   
    44    28    29 1   
    45    28    51 1   
    46    29    30 ar  
    47    29    34 ar  
    48    30    31 ar  
    49    30    52 1   
    50    31    32 1   
    51    31    36 ar  
    52    32    33 1   
    53    33    53 1   
    54    33    54 1   
    55    33    55 1   
    56    34    35 ar  
    57    34    56 1   
    58    35    36 ar  
    59    35    57 1   
    60    36    37 1   
    61    37    38 1   
    62    38    58 1   
    63    38    59 1   
    64    38    60 1   
@<TRIPOS>SUBSTRUCTURE
     1 CG4         1 TEMP              0 ****  ****    0 ROOT
