@<TRIPOS>MOLECULE
CG5
   80    86     1     0     0
SMALL
bcc


@<TRIPOS>ATOM
      1 C1           4.8620     1.1910     0.3210 c6         1 CG5       0.242100
      2 C02          4.5010     3.2730    -0.9670 c5         1 CG5       0.137800
      3 C03          3.6550     4.5400    -0.7220 c5         1 CG5       0.096100
      4 C05          3.1420     4.4030     0.7350 c5         1 CG5       0.165100
      5 C07          3.2820     2.9110     0.9890 c5         1 CG5       0.159500
      6 C08          2.0890     2.1650     0.3860 c6         1 CG5      -0.005700
      7 C10          3.6800     0.2760     0.1790 cc         1 CG5      -0.106600
      8 C11          3.6260    -1.1110     0.1800 cd         1 CG5      -0.108000
      9 C12          2.2630    -1.4610     0.2340 cd         1 CG5      -0.096000
     10 C13          1.5250    -0.2990     0.2360 cc         1 CG5      -0.214900
     11 C14          0.0600    -0.2360     0.2030 c          1 CG5       0.724700
     12 C17         -1.8070     1.1850    -0.6360 ca         1 CG5       0.547200
     13 C19         -3.1850     2.6930    -1.6470 ca         1 CG5       0.437200
     14 C20         -4.3170     2.1410    -1.0750 ca         1 CG5      -0.278300
     15 C21         -4.1570     1.0450    -0.2300 ca         1 CG5       0.061000
     16 C22         -2.8770     0.5530    -0.0040 ca         1 CG5      -0.248300
     17 C23         -5.3090     0.4150     0.4170 cc         1 CG5      -0.317600
     18 C24         -6.3000     1.0200     1.1290 cd         1 CG5       0.322000
     19 C27         -5.6350    -0.9720     0.5060 cc         1 CG5       0.418800
     20 C28         -4.9280    -2.1220    -0.0670 ca         1 CG5      -0.162500
     21 C29         -4.3900    -2.0570    -1.3510 ca         1 CG5      -0.067500
     22 C30         -3.7290    -3.1440    -1.8990 ca         1 CG5      -0.174500
     23 C31         -3.6130    -4.2950    -1.1440 ca         1 CG5       0.153900
     24 C33         -4.1380    -4.3970     0.1300 ca         1 CG5      -0.174500
     25 C34         -4.7980    -3.3020     0.6640 ca         1 CG5      -0.067500
     26 C35         -6.5800     2.4410     1.4770 c3         1 CG5      -0.105000
     27 C36         -7.8210     2.9530     0.7400 c3         1 CG5      -0.087600
     28 C37         -6.7100     2.6370     2.9890 c3         1 CG5      -0.087600
     29 C38          4.7540    -2.0480     0.1870 ca         1 CG5      -0.038000
     30 C39          4.7250    -3.1770     1.0130 ca         1 CG5      -0.087000
     31 C40          5.7660    -4.0840     1.0340 ca         1 CG5      -0.188000
     32 C41          6.8870    -3.8900     0.2250 ca         1 CG5       0.139100
     33 C43          9.0300    -4.6450    -0.4580 c3         1 CG5       0.125700
     34 C44          6.9340    -2.7770    -0.6090 ca         1 CG5      -0.188000
     35 C45          5.8730    -1.8790    -0.6230 ca         1 CG5      -0.087000
     36 F32         -2.9700    -5.3490    -1.6670 f          1 CG5      -0.140900
     37 N01          4.5240     2.5920     0.3200 n3         1 CG5      -0.713600
     38 N09          2.4100     0.7560     0.2130 na         1 CG5      -0.026100
     39 N16         -0.4760     0.8140    -0.4890 ns         1 CG5      -0.563400
     40 N18         -1.9610     2.2330    -1.4390 nb         1 CG5      -0.743000
     41 N26         -6.7230    -1.1490     1.1990 nd         1 CG5      -0.358300
     42 O04          4.3590     5.7510    -0.8350 oh         1 CG5      -0.595800
     43 O06          3.9470     5.0940     1.6490 oh         1 CG5      -0.575800
     44 O15         -0.6140    -1.1050     0.7290 o          1 CG5      -0.562100
     45 O25         -7.1320     0.0870     1.5920 os         1 CG5      -0.107100
     46 O42          7.8590    -4.8200     0.3130 os         1 CG5      -0.317900
     47 H1           5.3740     0.9360     1.2560 h1         1 CG5       0.076200
     48 H11          5.5860     1.0100    -0.4740 h1         1 CG5       0.076200
     49 H021         4.0490     2.6670    -1.7650 h1         1 CG5       0.049700
     50 H022         5.5140     3.5240    -1.2890 h1         1 CG5       0.049700
     51 H031         2.7960     4.5370    -1.4000 h1         1 CG5       0.036700
     52 H051         2.0950     4.7280     0.8080 h1         1 CG5       0.045700
     53 H071         3.3480     2.6780     2.0570 h1         1 CG5       0.106700
     54 H081         1.2270     2.2590     1.0450 h1         1 CG5       0.064700
     55 H082         1.8200     2.6030    -0.5790 h1         1 CG5       0.064700
     56 H121         1.8550    -2.4610     0.2160 ha         1 CG5       0.169000
     57 H191        -3.2700     3.5450    -2.3110 h4         1 CG5       0.019100
     58 H201        -5.2950     2.5420    -1.3040 ha         1 CG5       0.146000
     59 H221        -2.7190    -0.2930     0.6430 ha         1 CG5       0.183000
     60 H291        -4.4940    -1.1580    -1.9440 ha         1 CG5       0.144500
     61 H301        -3.3150    -3.0940    -2.8970 ha         1 CG5       0.153000
     62 H331        -4.0300    -5.3110     0.6990 ha         1 CG5       0.153000
     63 H341        -5.2020    -3.3670     1.6650 ha         1 CG5       0.144500
     64 H351        -5.7170     3.0150     1.1310 hc         1 CG5       0.068700
     65 H363        -8.7210     2.4340     1.0720 hc         1 CG5       0.044867
     66 H362        -7.9550     4.0160     0.9400 hc         1 CG5       0.044867
     67 H361        -7.7320     2.8230    -0.3390 hc         1 CG5       0.044867
     68 H372        -5.8200     2.2930     3.5160 hc         1 CG5       0.044867
     69 H373        -6.8420     3.6960     3.2090 hc         1 CG5       0.044867
     70 H371        -7.5730     2.1040     3.3890 hc         1 CG5       0.044867
     71 H391         3.8750    -3.3420     1.6640 ha         1 CG5       0.131000
     72 H401         5.7230    -4.9480     1.6870 ha         1 CG5       0.139500
     73 H432         8.8210    -4.6720    -1.5310 h1         1 CG5       0.039700
     74 H431         9.5380    -3.7070    -0.2230 h1         1 CG5       0.039700
     75 H433         9.6900    -5.4730    -0.2110 h1         1 CG5       0.039700
     76 H441         7.7750    -2.5950    -1.2650 ha         1 CG5       0.139500
     77 H451         5.9230    -1.0410    -1.3070 ha         1 CG5       0.131000
     78 H161         0.1440     1.3750    -1.0550 hn         1 CG5       0.331500
     79 H041         4.4310     5.9860    -1.7640 ho         1 CG5       0.418000
     80 H061         4.2080     5.9280     1.2410 ho         1 CG5       0.432000
@<TRIPOS>BOND
     1     1     7 1   
     2     1    37 1   
     3     1    47 1   
     4     1    48 1   
     5     2     3 1   
     6     2    37 1   
     7     2    49 1   
     8     2    50 1   
     9     3     4 1   
    10     3    42 1   
    11     3    51 1   
    12     4     5 1   
    13     4    43 1   
    14     4    52 1   
    15     5     6 1   
    16     5    37 1   
    17     5    53 1   
    18     6    38 1   
    19     6    54 1   
    20     6    55 1   
    21     7     8 2   
    22     7    38 1   
    23     8     9 1   
    24     8    29 1   
    25     9    10 2   
    26     9    56 1   
    27    10    11 1   
    28    10    38 1   
    29    11    39 1   
    30    11    44 2   
    31    12    16 ar  
    32    12    39 1   
    33    12    40 ar  
    34    13    14 ar  
    35    13    40 ar  
    36    13    57 1   
    37    14    15 ar  
    38    14    58 1   
    39    15    16 ar  
    40    15    17 1   
    41    16    59 1   
    42    17    18 2   
    43    17    19 1   
    44    18    26 1   
    45    18    45 1   
    46    19    20 1   
    47    19    41 2   
    48    20    21 ar  
    49    20    25 ar  
    50    21    22 ar  
    51    21    60 1   
    52    22    23 ar  
    53    22    61 1   
    54    23    24 ar  
    55    23    36 1   
    56    24    25 ar  
    57    24    62 1   
    58    25    63 1   
    59    26    27 1   
    60    26    28 1   
    61    26    64 1   
    62    27    65 1   
    63    27    66 1   
    64    27    67 1   
    65    28    68 1   
    66    28    69 1   
    67    28    70 1   
    68    29    30 ar  
    69    29    35 ar  
    70    30    31 ar  
    71    30    71 1   
    72    31    32 ar  
    73    31    72 1   
    74    32    34 ar  
    75    32    46 1   
    76    33    46 1   
    77    33    73 1   
    78    33    74 1   
    79    33    75 1   
    80    34    35 ar  
    81    34    76 1   
    82    35    77 1   
    83    39    78 1   
    84    41    45 1   
    85    42    79 1   
    86    43    80 1   
@<TRIPOS>SUBSTRUCTURE
     1 CG5         1 TEMP              0 ****  ****    0 ROOT
