@<TRIPOS>MOLECULE
CG5
   80    86     1     0     0
SMALL
No Charge or Current Charge


@<TRIPOS>ATOM
      1 C1           5.0050     1.2880     0.1110 c6         1 CG5       0.242100
      2 C02          4.4660     2.8950    -1.7770 c5         1 CG5       0.137800
      3 C03          3.7980     4.3210    -1.8480 c5         1 CG5       0.119300
      4 C05          3.4190     4.6580    -0.3530 c5         1 CG5       0.188300
      5 C07          3.4380     3.2460     0.3180 c5         1 CG5       0.159500
      6 C08          2.1530     2.3940     0.0350 c6         1 CG5       0.023600
      7 C10          3.7640     0.4280     0.1920 cc         1 CG5      -0.157300
      8 C11          3.6610    -0.9500     0.2340 cd         1 CG5      -0.108000
      9 C12          2.2770    -1.2470     0.2590 cd         1 CG5      -0.078000
     10 C13          1.5260    -0.1020     0.2000 cc         1 CG5      -0.265600
     11 C14          0.0380    -0.1430     0.1710 c          1 CG5       0.657700
     12 C17         -1.9130     1.4460     0.0110 ca         1 CG5       0.481900
     13 C19         -3.2970     3.2240    -0.4710 ca         1 CG5       0.371900
     14 C20         -4.4420     2.4660    -0.1880 ca         1 CG5      -0.195000
     15 C21         -4.3090     1.1280     0.2240 ca         1 CG5       0.061000
     16 C22         -3.0040     0.6160     0.3240 ca         1 CG5      -0.165000
     17 C23         -5.4740     0.2880     0.5310 cc         1 CG5      -0.187000
     18 C24         -6.4790     0.7090     1.3570 cd         1 CG5       0.212300
     19 C27         -5.6680    -1.1170     0.4250 cc         1 CG5       0.353500
     20 C28         -4.8830    -2.0510    -0.4070 ca         1 CG5      -0.162500
     21 C29         -4.1280    -1.6000    -1.5170 ca         1 CG5      -0.049500
     22 C30         -3.4170    -2.5090    -2.3200 ca         1 CG5      -0.156500
     23 C31         -3.4710    -3.8800    -2.0430 ca         1 CG5       0.189000
     24 C33         -4.2500    -4.3520    -0.9780 ca         1 CG5      -0.156500
     25 C34         -4.9630    -3.4460    -0.1740 ca         1 CG5      -0.049500
     26 C35         -6.7460     2.0250     2.0670 c3         1 CG5      -0.105000
     27 C36         -7.9470     2.7670     1.4370 c3         1 CG5      -0.087600
     28 C37         -6.9430     1.8270     3.5890 c3         1 CG5      -0.087600
     29 C38          4.7360    -1.9750     0.3300 ca         1 CG5      -0.038000
     30 C39          4.4420    -3.3210     0.0100 ca         1 CG5      -0.069000
     31 C40          5.4290    -4.3180     0.0860 ca         1 CG5      -0.170000
     32 C41          6.7320    -4.0030     0.4900 ca         1 CG5       0.139100
     33 C43          9.0220    -4.8000     0.9510 c3         1 CG5       0.148900
     34 C44          7.0420    -2.6700     0.8260 ca         1 CG5      -0.170000
     35 C45          6.0540    -1.6710     0.7470 ca         1 CG5      -0.069000
     36 F32         -2.7900    -4.7520    -2.8180 f          1 CG5      -0.176000
     37 N01          4.6480     2.6590    -0.3230 n3         1 CG5      -0.713600
     38 N09          2.4620     0.9450     0.1690 na         1 CG5       0.046000
     39 N16         -0.5650     1.0850     0.0610 ns         1 CG5      -0.329900
     40 N18         -2.0440     2.7280    -0.3730 nb         1 CG5      -0.743000
     41 N26         -6.7540    -1.5320     1.0590 nd         1 CG5      -0.358300
     42 O04          4.6620     5.3290    -2.4110 oh         1 CG5      -0.658000
     43 O06          4.3980     5.5430     0.2010 oh         1 CG5      -0.638000
     44 O15         -0.5920    -1.1890     0.2250 o          1 CG5      -0.562100
     45 O25         -7.2950    -0.3490     1.6570 os         1 CG5      -0.062700
     46 O42          7.6590    -5.0230     0.5480 os         1 CG5      -0.341100
     47 H1           5.4700     1.3410     1.1060 h1         1 CG5       0.076200
     48 H11          5.7460     0.8490    -0.5740 h1         1 CG5       0.076200
     49 H021         3.8060     2.1390    -2.2260 h1         1 CG5       0.049700
     50 H022         5.4230     2.8570    -2.3150 h1         1 CG5       0.049700
     51 H031         2.8810     4.2530    -2.4500 h1         1 CG5       0.036700
     52 H051         2.4220     5.1150    -0.2860 h1         1 CG5       0.045700
     53 H071         3.5610     3.3280     1.4080 h1         1 CG5       0.106700
     54 H081         1.3750     2.6810     0.7550 h1         1 CG5       0.064700
     55 H082         1.7730     2.5770    -0.9790 h1         1 CG5       0.064700
     56 H121         1.8520    -2.2440     0.3210 ha         1 CG5       0.151000
     57 H191        -3.3840     4.2600    -0.7950 h4         1 CG5       0.019100
     58 H201        -5.4200     2.9180    -0.3170 ha         1 CG5       0.128000
     59 H221        -2.8470    -0.4000     0.6650 ha         1 CG5       0.165000
     60 H291        -4.1080    -0.5480    -1.7880 ha         1 CG5       0.126500
     61 H301        -2.8330    -2.1510    -3.1640 ha         1 CG5       0.135000
     62 H331        -4.3020    -5.4190    -0.7780 ha         1 CG5       0.135000
     63 H341        -5.5610    -3.8360     0.6480 ha         1 CG5       0.126500
     64 H351        -5.8710     2.6750     1.9690 hc         1 CG5       0.068700
     65 H363        -8.8690     2.1840     1.5520 hc         1 CG5       0.044867
     66 H362        -8.0960     3.7430     1.9150 hc         1 CG5       0.044867
     67 H361        -7.7820     2.9350     0.3660 hc         1 CG5       0.044867
     68 H372        -6.0780     1.3130     4.0260 hc         1 CG5       0.044867
     69 H373        -7.0510     2.7950     4.0950 hc         1 CG5       0.044867
     70 H371        -7.8390     1.2310     3.8000 hc         1 CG5       0.044867
     71 H391         3.4500    -3.6060    -0.3270 ha         1 CG5       0.113000
     72 H401         5.1810    -5.3440    -0.1750 ha         1 CG5       0.121500
     73 H432         9.5160    -4.0880     0.2780 h1         1 CG5       0.039700
     74 H431         9.0660    -4.4060     1.9750 h1         1 CG5       0.039700
     75 H433         9.5850    -5.7400     0.9240 h1         1 CG5       0.039700
     76 H441         8.0370    -2.3900     1.1570 ha         1 CG5       0.121500
     77 H451         6.3310    -0.6720     1.0540 ha         1 CG5       0.113000
     78 H161         0.0620     1.8690    -0.0240 hn         1 CG5       0.165000
     79 H041         4.7840     5.1080    -3.3630 ho         1 CG5       0.457000
     80 H061         4.9530     5.7440    -0.5920 ho         1 CG5       0.471000
@<TRIPOS>BOND
     1     1     7 1   
     2     1    37 1   
     3     1    47 1   
     4     1    48 1   
     5     2     3 1   
     6     2    37 1   
     7     2    49 1   
     8     2    50 1   
     9     3     4 1   
    10     3    42 1   
    11     3    51 1   
    12     4     5 1   
    13     4    43 1   
    14     4    52 1   
    15     5     6 1   
    16     5    37 1   
    17     5    53 1   
    18     6    38 1   
    19     6    54 1   
    20     6    55 1   
    21     7     8 2   
    22     7    38 1   
    23     8     9 1   
    24     8    29 1   
    25     9    10 2   
    26     9    56 1   
    27    10    11 1   
    28    10    38 1   
    29    11    39 1   
    30    11    44 2   
    31    12    16 ar  
    32    12    39 1   
    33    12    40 ar  
    34    13    14 ar  
    35    13    40 ar  
    36    13    57 1   
    37    14    15 ar  
    38    14    58 1   
    39    15    16 ar  
    40    15    17 1   
    41    16    59 1   
    42    17    18 2   
    43    17    19 1   
    44    18    26 1   
    45    18    45 1   
    46    19    20 1   
    47    19    41 2   
    48    20    21 ar  
    49    20    25 ar  
    50    21    22 ar  
    51    21    60 1   
    52    22    23 ar  
    53    22    61 1   
    54    23    24 ar  
    55    23    36 1   
    56    24    25 ar  
    57    24    62 1   
    58    25    63 1   
    59    26    27 1   
    60    26    28 1   
    61    26    64 1   
    62    27    65 1   
    63    27    66 1   
    64    27    67 1   
    65    28    68 1   
    66    28    69 1   
    67    28    70 1   
    68    29    30 ar  
    69    29    35 ar  
    70    30    31 ar  
    71    30    71 1   
    72    31    32 ar  
    73    31    72 1   
    74    32    34 ar  
    75    32    46 1   
    76    33    46 1   
    77    33    73 1   
    78    33    74 1   
    79    33    75 1   
    80    34    35 ar  
    81    34    76 1   
    82    35    77 1   
    83    39    78 1   
    84    41    45 1   
    85    42    79 1   
    86    43    80 1   
@<TRIPOS>SUBSTRUCTURE
     1 CG5         1 TEMP              0 ****  ****    0 ROOT
