@<TRIPOS>MOLECULE
CG6
   16    15     1     0     0
SMALL
No Charge or Current Charge


@<TRIPOS>ATOM
      1 O          -25.6740    -1.7460   -46.4320 o          1 CG6      -0.822800
      2 C          -26.7320    -2.0350   -45.8810 c          1 CG6       0.925600
      3 CA         -26.7710    -2.0750   -44.2930 c3         1 CG6       0.013500
      4 N          -27.3540    -0.8550   -43.6030 n8         1 CG6      -0.874800
      5 CB         -27.4370    -3.3930   -43.7850 c3         1 CG6       0.124400
      6 SG         -27.5920    -3.4560   -41.9290 sh         1 CG6      -0.550900
      7 CM         -26.7200    -4.6610   -44.3010 c3         1 CG6      -0.077100
      8 O1         -27.7640    -2.2430   -46.5140 o          1 CG6      -0.822800
      9 H1         -25.7210    -2.1130   -43.9700 h1         1 CG6       0.020700
     10 H2         -27.1960    -0.9430   -42.5950 hn         1 CG6       0.317300
     11 H3         -26.8200    -0.0240   -43.8760 hn         1 CG6       0.317300
     12 H5         -28.4630    -3.4160   -44.1790 h1         1 CG6       0.082700
     13 H6         -28.4080    -2.3750   -41.8300 hs         1 CG6       0.229800
     14 H7         -27.2210    -5.5610   -43.9240 hc         1 CG6       0.039033
     15 H8         -26.7280    -4.7110   -45.3960 hc         1 CG6       0.039033
     16 H9         -25.6780    -4.6830   -43.9610 hc         1 CG6       0.039033
@<TRIPOS>BOND
     1     1     2 1   
     2     2     3 1   
     3     2     8 1   
     4     3     4 1   
     5     3     5 1   
     6     3     9 1   
     7     4    10 1   
     8     4    11 1   
     9     5     6 1   
    10     5     7 1   
    11     5    12 1   
    12     6    13 1   
    13     7    14 1   
    14     7    15 1   
    15     7    16 1   
@<TRIPOS>SUBSTRUCTURE
     1 CG6         1 TEMP              0 ****  ****    0 ROOT
