@<TRIPOS>MOLECULE
CG6
   16    15     1     0     0
SMALL
bcc


@<TRIPOS>ATOM
      1 O          -25.6870    -2.2160   -46.4050 o          1 CG6      -0.822800
      2 C          -26.7570    -1.9980   -45.8040 c          1 CG6       0.925600
      3 CA         -26.7120    -2.0830   -44.2520 c3         1 CG6       0.013500
      4 N          -27.3780    -0.9260   -43.6660 n8         1 CG6      -0.874800
      5 CB         -27.4180    -3.3700   -43.8150 c3         1 CG6       0.124400
      6 SG         -27.5610    -3.5020   -41.9850 sh         1 CG6      -0.550900
      7 CM         -26.6880    -4.6210   -44.2790 c3         1 CG6      -0.077100
      8 O1         -27.8650    -1.7370   -46.3110 o          1 CG6      -0.822800
      9 H1         -25.6600    -2.1660   -43.9410 h1         1 CG6       0.020700
     10 H2         -27.1130    -0.8540   -42.6910 hn         1 CG6       0.317300
     11 H3         -27.0320    -0.0800   -44.1010 hn         1 CG6       0.317300
     12 H5         -28.4350    -3.3630   -44.2100 h1         1 CG6       0.082700
     13 H6         -28.4790    -2.5480   -41.8010 hs         1 CG6       0.229800
     14 H7         -27.2160    -5.5250   -43.9770 hc         1 CG6       0.039033
     15 H8         -26.6000    -4.6370   -45.3640 hc         1 CG6       0.039033
     16 H9         -25.6780    -4.6650   -43.8670 hc         1 CG6       0.039033
@<TRIPOS>BOND
     1     1     2 1   
     2     2     3 1   
     3     2     8 1   
     4     3     4 1   
     5     3     5 1   
     6     3     9 1   
     7     4    10 1   
     8     4    11 1   
     9     5     6 1   
    10     5     7 1   
    11     5    12 1   
    12     6    13 1   
    13     7    14 1   
    14     7    15 1   
    15     7    16 1   
@<TRIPOS>SUBSTRUCTURE
     1 CG6         1 TEMP              0 ****  ****    0 ROOT
