@<TRIPOS>MOLECULE
CG7
   51    55     1     0     0
SMALL
No Charge or Current Charge


@<TRIPOS>ATOM
      1 OAB         -6.8670     2.6250    -2.1910 o          1 CG7      -0.713500
      2 CAV         -7.3410     2.3560    -1.0960 c          1 CG7       0.714600
      3 OAC         -8.4710     2.6760    -0.7550 o          1 CG7      -0.713500
      4 CBD         -6.5180     1.5000    -0.1610 ca         1 CG7      -0.119600
      5 CAP         -5.9790     0.2910    -0.6520 ca         1 CG7      -0.067000
      6 CAW         -6.2710     1.8740     1.1860 ca         1 CG7      -0.033300
      7 CAA         -6.7940     3.1860     1.7640 c3         1 CG7      -0.028800
      8 CAI         -5.5170     1.0190     2.0150 ca         1 CG7      -0.138000
      9 CAK         -4.9940    -0.1850     1.5180 ca         1 CG7      -0.124000
     10 CAZ         -5.2010    -0.5380     0.1720 ca         1 CG7       0.053100
     11 OAU         -4.7440    -1.7420    -0.3310 os         1 CG7      -0.326700
     12 CBC         -3.3680    -1.8500    -0.2910 cc         1 CG7       0.669100
     13 NAR         -2.7250    -3.0470    -0.5200 na         1 CG7      -0.333600
     14 NAT         -2.5250    -0.8180    -0.0970 nd         1 CG7      -0.682700
     15 CBH         -1.2750    -1.4140    -0.1870 ca         1 CG7       0.513000
     16 NAS         -0.0850    -0.8120    -0.0610 nb         1 CG7      -0.610000
     17 CBG         -1.3960    -2.7620    -0.4420 ca         1 CG7      -0.130200
     18 CAQ         -0.2890    -3.5990    -0.5970 ca         1 CG7      -0.071000
     19 CAY          0.9700    -2.9850    -0.4630 ca         1 CG7       0.063000
     20 Cl1          2.4050    -3.9880    -0.7120 cl         1 CG7      -0.206000
     21 CBF          1.0350    -1.5780    -0.1770 cp         1 CG7       0.401500
     22 CBB          2.3300    -0.8360    -0.0090 cp         1 CG7      -0.126500
     23 CAO          3.3630    -1.3260     0.8290 ca         1 CG7      -0.080000
     24 CAM          4.5670    -0.6190     0.9880 ca         1 CG7      -0.101000
     25 CAN          2.5460     0.4050    -0.6600 ca         1 CG7      -0.080000
     26 CAL          3.7520     1.1100    -0.5010 ca         1 CG7      -0.101000
     27 CBA          4.7910     0.6070     0.3180 cp         1 CG7      -0.026000
     28 CBE          6.0740     1.3580     0.5100 cp         1 CG7      -0.060000
     29 CAJ          6.5890     1.5340     1.8190 ca         1 CG7      -0.065000
     30 CAG          7.7860     2.2350     2.0420 ca         1 CG7      -0.152000
     31 CAF          8.4980     2.7720     0.9590 ca         1 CG7      -0.072000
     32 CAH          8.0120     2.6040    -0.3470 ca         1 CG7      -0.212000
     33 CAX          6.8150     1.9050    -0.5780 ca         1 CG7       0.149100
     34 OAD          6.4050     1.7450    -1.8710 oh         1 CG7      -0.522100
     35 H2          -6.1660    -0.0070    -1.6820 ha         1 CG7       0.143000
     36 H3          -7.8680     3.1230     1.9720 hc         1 CG7       0.039367
     37 H4          -6.2910     3.4430     2.7040 hc         1 CG7       0.039367
     38 H5          -6.6290     4.0210     1.0720 hc         1 CG7       0.039367
     39 H6          -5.3350     1.2880     3.0530 ha         1 CG7       0.092000
     40 H7          -4.4270    -0.8400     2.1760 ha         1 CG7       0.101000
     41 H8          -3.1730    -3.9330    -0.7080 hn         1 CG7       0.367000
     42 H10         -0.3900    -4.6590    -0.8170 ha         1 CG7       0.129000
     43 H11          3.2250    -2.2570     1.3740 ha         1 CG7       0.123500
     44 H12          5.3390    -1.0290     1.6340 ha         1 CG7       0.112500
     45 H13          1.7710     0.8230    -1.2990 ha         1 CG7       0.123500
     46 H14          3.8790     2.0610    -1.0100 ha         1 CG7       0.112500
     47 H15          6.0460     1.1320     2.6710 ha         1 CG7       0.120000
     48 H16          8.1610     2.3620     3.0550 ha         1 CG7       0.113000
     49 H17          9.4260     3.3130     1.1320 ha         1 CG7       0.107000
     50 H18          8.5770     3.0180    -1.1790 ha         1 CG7       0.108000
     51 H19          7.0620     2.1760    -2.4560 ho         1 CG7       0.459000
@<TRIPOS>BOND
     1     1     2 1   
     2     2     3 1   
     3     2     4 1   
     4     4     5 ar  
     5     4     6 ar  
     6     5    10 ar  
     7     5    35 1   
     8     6     7 1   
     9     6     8 ar  
    10     7    36 1   
    11     7    37 1   
    12     7    38 1   
    13     8     9 ar  
    14     8    39 1   
    15     9    10 ar  
    16     9    40 1   
    17    10    11 1   
    18    11    12 1   
    19    12    13 1   
    20    12    14 2   
    21    13    17 1   
    22    13    41 1   
    23    14    15 1   
    24    15    16 ar  
    25    15    17 ar  
    26    16    21 ar  
    27    17    18 ar  
    28    18    19 ar  
    29    18    42 1   
    30    19    20 1   
    31    19    21 ar  
    32    21    22 1   
    33    22    23 ar  
    34    22    25 ar  
    35    23    24 ar  
    36    23    43 1   
    37    24    27 ar  
    38    24    44 1   
    39    25    26 ar  
    40    25    45 1   
    41    26    27 ar  
    42    26    46 1   
    43    27    28 1   
    44    28    29 ar  
    45    28    33 ar  
    46    29    30 ar  
    47    29    47 1   
    48    30    31 ar  
    49    30    48 1   
    50    31    32 ar  
    51    31    49 1   
    52    32    33 ar  
    53    32    50 1   
    54    33    34 1   
    55    34    51 1   
@<TRIPOS>SUBSTRUCTURE
     1 CG7         1 TEMP              0 ****  ****    0 ROOT
