@<TRIPOS>MOLECULE
CG7
   51    55     1     0     0
SMALL
bcc


@<TRIPOS>ATOM
      1 OAB         -6.2990     2.3440    -2.3440 o          1 CG7      -0.818800
      2 CAV         -6.8620     2.4310    -1.2350 c          1 CG7       0.925200
      3 OAC         -7.8370     3.1490    -0.9510 o          1 CG7      -0.818800
      4 CBD         -6.3040     1.5370    -0.1280 ca         1 CG7      -0.119600
      5 CAP         -5.6370     0.3790    -0.5270 ca         1 CG7      -0.085000
      6 CAW         -6.4350     1.8120     1.2430 ca         1 CG7      -0.033300
      7 CAA         -7.1070     3.0400     1.7910 c3         1 CG7      -0.028800
      8 CAI         -5.8940     0.9050     2.1570 ca         1 CG7      -0.156000
      9 CAK         -5.2570    -0.2590     1.7600 ca         1 CG7      -0.142000
     10 CAZ         -5.1430    -0.5060     0.4060 ca         1 CG7       0.053100
     11 OAU         -4.5660    -1.6950    -0.0300 os         1 CG7      -0.326700
     12 CBC         -3.2510    -1.7530    -0.1010 cc         1 CG7       0.669100
     13 NAR         -2.6910    -2.9280    -0.4810 na         1 CG7      -0.283300
     14 NAT         -2.4040    -0.8020     0.1540 nd         1 CG7      -0.682700
     15 CBH         -1.1810    -1.3800    -0.0720 ca         1 CG7       0.578300
     16 NAS         -0.0090    -0.7950     0.0600 nb         1 CG7      -0.610000
     17 CBG         -1.3380    -2.7200    -0.4740 ca         1 CG7      -0.195500
     18 CAQ         -0.2390    -3.4900    -0.7670 ca         1 CG7      -0.089000
     19 CAY          0.9890    -2.8540    -0.6200 ca         1 CG7      -0.093900
     20 CL1          2.4080    -3.7530    -1.0400 cl         1 CG7      -0.114400
     21 CBF          1.0800    -1.5190    -0.1980 cp         1 CG7       0.466800
     22 CBB          2.3720    -0.8120    -0.0420 cp         1 CG7      -0.126500
     23 CAO          3.3870    -1.3020     0.7750 ca         1 CG7      -0.098000
     24 CAM          4.5690    -0.5950     0.9320 ca         1 CG7      -0.119000
     25 CAN          2.5660     0.4080    -0.6850 ca         1 CG7      -0.098000
     26 CAL          3.7530     1.1060    -0.5400 ca         1 CG7      -0.119000
     27 CBA          4.7760     0.6150     0.2710 cp         1 CG7      -0.026000
     28 CBE          6.0370     1.3610     0.4710 cp         1 CG7      -0.060000
     29 CAJ          6.4770     1.6600     1.7580 ca         1 CG7      -0.083000
     30 CAG          7.6620     2.3440     1.9850 ca         1 CG7      -0.170000
     31 CAF          8.4340     2.7380     0.9010 ca         1 CG7      -0.090000
     32 CAH          8.0240     2.4450    -0.3910 ca         1 CG7      -0.230000
     33 CAX          6.8330     1.7580    -0.6120 ca         1 CG7       0.149100
     34 OAD          6.4200     1.4320    -1.8530 oh         1 CG7      -0.483100
     35 H2          -5.5190     0.1680    -1.5820 ha         1 CG7       0.161000
     36 H3          -8.1840     3.0160     1.6290 hc         1 CG7       0.039367
     37 H4          -6.9290     3.1150     2.8630 hc         1 CG7       0.039367
     38 H5          -6.7400     3.9510     1.3230 hc         1 CG7       0.039367
     39 H6          -5.9760     1.1160     3.2170 ha         1 CG7       0.110000
     40 H7          -4.8630    -0.9540     2.4910 ha         1 CG7       0.119000
     41 H8          -3.1830    -3.7740    -0.7290 hn         1 CG7       0.316700
     42 H10         -0.3100    -4.5170    -1.1000 ha         1 CG7       0.147000
     43 H11          3.2560    -2.2350     1.3090 ha         1 CG7       0.141500
     44 H12          5.3440    -0.9980     1.5710 ha         1 CG7       0.130500
     45 H13          1.7810     0.8160    -1.3100 ha         1 CG7       0.141500
     46 H14          3.8730     2.0530    -1.0510 ha         1 CG7       0.130500
     47 H15          5.8640     1.3600     2.6000 ha         1 CG7       0.138000
     48 H16          7.9770     2.5680     2.9950 ha         1 CG7       0.131000
     49 H17          9.3610     3.2750     1.0550 ha         1 CG7       0.125000
     50 H18          8.6380     2.7430    -1.2340 ha         1 CG7       0.126000
     51 H19          7.0600     1.7350    -2.5060 ho         1 CG7       0.420000
@<TRIPOS>BOND
     1     1     2 1   
     2     2     3 1   
     3     2     4 1   
     4     4     5 ar  
     5     4     6 ar  
     6     5    10 ar  
     7     5    35 1   
     8     6     7 1   
     9     6     8 ar  
    10     7    36 1   
    11     7    37 1   
    12     7    38 1   
    13     8     9 ar  
    14     8    39 1   
    15     9    10 ar  
    16     9    40 1   
    17    10    11 1   
    18    11    12 1   
    19    12    13 1   
    20    12    14 2   
    21    13    17 1   
    22    13    41 1   
    23    14    15 1   
    24    15    16 ar  
    25    15    17 ar  
    26    16    21 ar  
    27    17    18 ar  
    28    18    19 ar  
    29    18    42 1   
    30    19    20 1   
    31    19    21 ar  
    32    21    22 1   
    33    22    23 ar  
    34    22    25 ar  
    35    23    24 ar  
    36    23    43 1   
    37    24    27 ar  
    38    24    44 1   
    39    25    26 ar  
    40    25    45 1   
    41    26    27 ar  
    42    26    46 1   
    43    27    28 1   
    44    28    29 ar  
    45    28    33 ar  
    46    29    30 ar  
    47    29    47 1   
    48    30    31 ar  
    49    30    48 1   
    50    31    32 ar  
    51    31    49 1   
    52    32    33 ar  
    53    32    50 1   
    54    33    34 1   
    55    34    51 1   
@<TRIPOS>SUBSTRUCTURE
     1 CG7         1 TEMP              0 ****  ****    0 ROOT
