@<TRIPOS>MOLECULE
CG9
   52    57     1     0     0
SMALL
No Charge or Current Charge


@<TRIPOS>ATOM
      1 C01         -6.9450     0.0550     1.1910 c6         1 CG9       0.148600
      2 C02         -5.7510    -0.9400     1.0820 c6         1 CG9       0.157800
      3 N03         -4.8440    -0.6200    -0.0710 nh         1 CG9      -0.782400
      4 C04         -5.5760    -0.3290    -1.3490 c6         1 CG9       0.157800
      5 C05         -6.7780     0.6390    -1.1370 c6         1 CG9       0.148600
      6 O06         -7.6390     0.1660    -0.0740 os         1 CG9      -0.445000
      7 C07         -3.5070    -1.0870    -0.1050 ca         1 CG9       0.273000
      8 C08         -3.1210    -2.2590     0.5760 ca         1 CG9      -0.139000
      9 C09         -1.7870    -2.7090     0.5320 ca         1 CG9      -0.109000
     10 C10         -0.8130    -1.9910    -0.1830 ca         1 CG9       0.267000
     11 N11          0.4970    -2.4730    -0.2220 nu         1 CG9      -0.922900
     12 C12          1.7200    -1.8870    -0.1430 cc         1 CG9       0.688900
     13 N13          1.7820    -0.5800    -0.0830 nd         1 CG9      -0.775000
     14 C14          3.0820    -0.0390     0.0190 cd         1 CG9       0.427500
     15 C15          4.2360    -0.8460     0.0570 cc         1 CG9      -0.211000
     16 N16          4.0300    -2.2110    -0.0180 na         1 CG9       0.168100
     17 C17          5.0260    -3.1370     0.0280 cc         1 CG9      -0.263100
     18 C18          4.3190    -4.3250    -0.0490 cd         1 CG9      -0.046400
     19 N19          2.9460    -4.0870    -0.1300 nd         1 CG9      -0.282600
     20 C20          2.8220    -2.7660    -0.1030 cc         1 CG9      -0.181000
     21 C21          3.1720     1.4520     0.0880 ca         1 CG9      -0.107500
     22 C22          4.4320     2.1250     0.1860 ca         1 CG9      -0.139000
     23 C23          4.5160     3.5330     0.2490 ca         1 CG9      -0.040000
     24 C24          3.3210     4.2560     0.2130 ca         1 CG9      -0.223900
     25 C25          3.0440     5.6690     0.2570 cc         1 CG9       0.350800
     26 N26          1.7250     5.9160     0.1940 nd         1 CG9      -0.512100
     27 N27          1.1590     4.6350     0.1090 na         1 CG9      -0.060400
     28 C28          2.1180     3.6420     0.1210 ca         1 CG9      -0.048200
     29 C29          1.9900     2.2500     0.0550 ca         1 CG9      -0.082000
     30 C30         -1.1980    -0.8260    -0.8740 ca         1 CG9      -0.109000
     31 C31         -2.5310    -0.3770    -0.8310 ca         1 CG9      -0.139000
     32 H1          -7.6500    -0.2910     1.9600 h1         1 CG9       0.052700
     33 H2          -6.5770     1.0470     1.4890 h1         1 CG9       0.052700
     34 H3          -5.1890    -0.9080     2.0270 h1         1 CG9       0.046950
     35 H4          -6.1510    -1.9590     0.9720 h1         1 CG9       0.046950
     36 H5          -4.9030     0.1180    -2.0940 h1         1 CG9       0.046950
     37 H6          -5.9520    -1.2680    -1.7810 h1         1 CG9       0.046950
     38 H7          -6.4080     1.6430    -0.8820 h1         1 CG9       0.052700
     39 H8          -7.3610     0.7180    -2.0650 h1         1 CG9       0.052700
     40 H9          -3.8510    -2.8370     1.1340 ha         1 CG9       0.114500
     41 H10         -1.5120    -3.6170     1.0610 ha         1 CG9       0.127500
     42 H11          0.5990    -3.4710    -0.0560 hn         1 CG9       0.523000
     43 H12          5.2570    -0.5110     0.1360 h4         1 CG9       0.156000
     44 H13          6.0830    -2.9070     0.1050 h4         1 CG9       0.235000
     45 H14          4.7180    -5.3370    -0.0480 h4         1 CG9       0.230000
     46 H15          5.3650     1.5730     0.2130 ha         1 CG9       0.110000
     47 H16          5.4780     4.0370     0.3240 ha         1 CG9       0.120000
     48 H17          3.7100     6.5190     0.3300 h4         1 CG9       0.050800
     49 H19          0.9990     1.8080    -0.0180 ha         1 CG9       0.145000
     50 H20         -0.4670    -0.2690    -1.4520 ha         1 CG9       0.127500
     51 H21         -2.8010     0.5330    -1.3570 ha         1 CG9       0.114500
     52 H18          0.1510     4.4980     0.0480 hn         1 CG9       0.378000
@<TRIPOS>BOND
     1     1     2 1   
     2     1     6 1   
     3     1    32 1   
     4     1    33 1   
     5     2     3 1   
     6     2    34 1   
     7     2    35 1   
     8     3     4 1   
     9     3     7 1   
    10     4     5 1   
    11     4    36 1   
    12     4    37 1   
    13     5     6 1   
    14     5    38 1   
    15     5    39 1   
    16     7     8 ar  
    17     7    31 ar  
    18     8     9 ar  
    19     8    40 1   
    20     9    10 ar  
    21     9    41 1   
    22    10    11 1   
    23    10    30 ar  
    24    11    12 1   
    25    11    42 1   
    26    12    13 2   
    27    12    20 1   
    28    13    14 1   
    29    14    15 2   
    30    14    21 1   
    31    15    16 1   
    32    15    43 1   
    33    16    17 1   
    34    16    20 1   
    35    17    18 2   
    36    17    44 1   
    37    18    19 1   
    38    18    45 1   
    39    19    20 2   
    40    21    22 ar  
    41    21    29 ar  
    42    22    23 ar  
    43    22    46 1   
    44    23    24 ar  
    45    23    47 1   
    46    24    25 1   
    47    24    28 ar  
    48    25    26 2   
    49    25    48 1   
    50    26    27 1   
    51    27    28 1   
    52    27    52 1   
    53    28    29 ar  
    54    29    49 1   
    55    30    31 ar  
    56    30    50 1   
    57    31    51 1   
@<TRIPOS>SUBSTRUCTURE
     1 CG9         1 TEMP              0 ****  ****    0 ROOT
