@<TRIPOS>MOLECULE
CG9
   52    57     1     0     0
SMALL
bcc


@<TRIPOS>ATOM
      1 C01         -6.9710    -0.2990     0.9590 c6         1 CG9       0.125400
      2 C02         -5.7560    -1.1810     0.7330 c6         1 CG9       0.157800
      3 N03         -4.7320    -0.4360     0.0270 nh         1 CG9      -0.644000
      4 C04         -5.2520     0.1490    -1.2020 c6         1 CG9       0.157800
      5 C05         -6.4830     0.9810    -0.9050 c6         1 CG9       0.125400
      6 O06         -7.4750     0.2280    -0.2470 os         1 CG9      -0.398600
      7 C07         -3.4460    -0.9760    -0.0170 ca         1 CG9       0.134600
      8 C08         -3.1350    -2.2340     0.5090 ca         1 CG9      -0.157000
      9 C09         -1.8340    -2.7120     0.5060 ca         1 CG9      -0.127000
     10 C10         -0.7930    -1.9740    -0.0490 ca         1 CG9       0.128600
     11 N11          0.4860    -2.5410    -0.0550 nu         1 CG9      -0.729300
     12 C12          1.6860    -1.9190    -0.0220 cc         1 CG9       0.754200
     13 N13          1.8120    -0.6250    -0.0620 nd         1 CG9      -0.775000
     14 C14          3.0510    -0.0570     0.0000 cd         1 CG9       0.492800
     15 C15          4.1890    -0.7930     0.1080 cc         1 CG9      -0.243600
     16 N16          4.0570    -2.1610     0.1320 na         1 CG9       0.066700
     17 C17          4.9850    -3.1560     0.2270 cc         1 CG9      -0.213100
     18 C18          4.2620    -4.3240     0.2100 cd         1 CG9       0.003600
     19 N19          2.9330    -4.0790     0.1120 nd         1 CG9      -0.282600
     20 C20          2.8370    -2.7670     0.0650 cc         1 CG9      -0.195600
     21 C21          3.0840     1.4200    -0.0310 ca         1 CG9      -0.107500
     22 C22          4.2910     2.1170    -0.3030 ca         1 CG9      -0.157000
     23 C23          4.3490     3.4880    -0.3290 ca         1 CG9      -0.058000
     24 C24          3.1750     4.2130    -0.0840 ca         1 CG9      -0.223900
     25 C25          2.7990     5.5810    -0.0260 cc         1 CG9       0.350800
     26 N26          1.5200     5.7010     0.2330 nd         1 CG9      -0.512100
     27 N27          1.0320     4.4650     0.3510 na         1 CG9      -0.010100
     28 C28          1.9820     3.5170     0.1710 ca         1 CG9      -0.048200
     29 C29          1.9160     2.1220     0.2040 ca         1 CG9      -0.100000
     30 C30         -1.0940    -0.7280    -0.6020 ca         1 CG9      -0.127000
     31 C31         -2.3890    -0.2430    -0.5730 ca         1 CG9      -0.157000
     32 H1          -7.7670    -0.8830     1.4230 h1         1 CG9       0.052700
     33 H2          -6.7020     0.5140     1.6480 h1         1 CG9       0.052700
     34 H3          -5.3840    -1.4880     1.7120 h1         1 CG9       0.046950
     35 H4          -6.0520    -2.0920     0.1910 h1         1 CG9       0.046950
     36 H5          -4.5100     0.7990    -1.6630 h1         1 CG9       0.046950
     37 H6          -5.4950    -0.6330    -1.9360 h1         1 CG9       0.046950
     38 H7          -6.1940     1.8510    -0.2990 h1         1 CG9       0.052700
     39 H8          -6.9120     1.3490    -1.8380 h1         1 CG9       0.052700
     40 H9          -3.9030    -2.8660     0.9340 ha         1 CG9       0.132500
     41 H10         -1.6310    -3.6860     0.9360 ha         1 CG9       0.145500
     42 H11          0.5250    -3.5440     0.0590 hn         1 CG9       0.467800
     43 H12          5.1890    -0.4030     0.2040 h4         1 CG9       0.174000
     44 H13          6.0400    -2.9570     0.2970 h4         1 CG9       0.185000
     45 H14          4.6520    -5.3290     0.2620 h4         1 CG9       0.180000
     46 H15          5.1920     1.5630    -0.5300 ha         1 CG9       0.128000
     47 H16          5.2800     3.9920    -0.5520 ha         1 CG9       0.138000
     48 H17          3.4170     6.4550    -0.1680 h4         1 CG9       0.050800
     49 H19          0.9890     1.6040     0.4090 ha         1 CG9       0.163000
     50 H20         -0.3190    -0.1270    -1.0510 ha         1 CG9       0.145500
     51 H21         -2.5680     0.7410    -0.9850 ha         1 CG9       0.132500
     52 H18          0.0530     4.3320     0.5410 hn         1 CG9       0.327700
@<TRIPOS>BOND
     1     1     2 1   
     2     1     6 1   
     3     1    32 1   
     4     1    33 1   
     5     2     3 1   
     6     2    34 1   
     7     2    35 1   
     8     3     4 1   
     9     3     7 1   
    10     4     5 1   
    11     4    36 1   
    12     4    37 1   
    13     5     6 1   
    14     5    38 1   
    15     5    39 1   
    16     7     8 ar  
    17     7    31 ar  
    18     8     9 ar  
    19     8    40 1   
    20     9    10 ar  
    21     9    41 1   
    22    10    11 1   
    23    10    30 ar  
    24    11    12 1   
    25    11    42 1   
    26    12    13 2   
    27    12    20 1   
    28    13    14 1   
    29    14    15 2   
    30    14    21 1   
    31    15    16 1   
    32    15    43 1   
    33    16    17 1   
    34    16    20 1   
    35    17    18 2   
    36    17    44 1   
    37    18    19 1   
    38    18    45 1   
    39    19    20 2   
    40    21    22 ar  
    41    21    29 ar  
    42    22    23 ar  
    43    22    46 1   
    44    23    24 ar  
    45    23    47 1   
    46    24    25 1   
    47    24    28 ar  
    48    25    26 2   
    49    25    48 1   
    50    26    27 1   
    51    27    28 1   
    52    27    52 1   
    53    28    29 ar  
    54    29    49 1   
    55    30    31 ar  
    56    30    50 1   
    57    31    51 1   
@<TRIPOS>SUBSTRUCTURE
     1 CG9         1 TEMP              0 ****  ****    0 ROOT
