@<TRIPOS>MOLECULE
CGB
   25    26     1     0     0
SMALL
No Charge or Current Charge


@<TRIPOS>ATOM
      1 O2          -2.6300    -0.2820    -0.6820 oh         1 CGB      -0.676000
      2 C2          -1.3090    -0.3310    -0.2140 c5         1 CGB       0.391200
      3 N1          -0.5880    -1.2450    -1.0810 n7         1 CGB      -0.857400
      4 C8          -1.2080    -1.0560     1.1630 c5         1 CGB      -0.142400
      5 C7           0.1550    -1.8270     1.0740 c5         1 CGB      -0.111400
      6 C6           0.6850    -1.4610    -0.3460 c5         1 CGB       0.156500
      7 C3          -0.6500     1.1070    -0.2950 c6         1 CGB       0.192300
      8 O3          -1.3990     2.1050     0.4340 oh         1 CGB      -0.708000
      9 C4           0.8110     1.0470     0.2360 c6         1 CGB       0.092300
     10 O4           1.5080     2.2930     0.0210 oh         1 CGB      -0.730000
     11 C5           1.5620    -0.1490    -0.4280 c6         1 CGB       0.163300
     12 O5           2.8560    -0.3110     0.1910 oh         1 CGB      -0.723000
     13 HO          -2.9670     0.5730    -0.3310 ho         1 CGB       0.503000
     14 H1          -1.1240    -2.1170    -1.0840 hn         1 CGB       0.412000
     15 H8C1        -1.2360    -0.3520     2.0020 hc         1 CGB       0.059700
     16 H8C2        -2.0370    -1.7570     1.3130 hc         1 CGB       0.059700
     17 H7C1         0.8560    -1.5430     1.8680 hc         1 CGB       0.057700
     18 H7C2        -0.0030    -2.9080     1.1650 hc         1 CGB       0.057700
     19 H6           1.2620    -2.2890    -0.7830 h1         1 CGB       0.082700
     20 H3          -0.6050     1.3880    -1.3590 h1         1 CGB       0.075700
     21 HA          -0.7610     2.8490     0.5570 ho         1 CGB       0.511000
     22 H4           0.7670     0.8510     1.3180 h1         1 CGB       0.049700
     23 HB           2.4620     2.0850     0.1740 ho         1 CGB       0.507000
     24 H5           1.6940     0.0880    -1.4960 h1         1 CGB       0.066700
     25 HC           3.3520    -0.9770    -0.3420 ho         1 CGB       0.510000
@<TRIPOS>BOND
     1     1     2 1   
     2     1    13 1   
     3     2     3 1   
     4     2     4 1   
     5     2     7 1   
     6     3     6 1   
     7     3    14 1   
     8     4     5 1   
     9     4    15 1   
    10     4    16 1   
    11     5     6 1   
    12     5    17 1   
    13     5    18 1   
    14     6    11 1   
    15     6    19 1   
    16     7     8 1   
    17     7     9 1   
    18     7    20 1   
    19     8    21 1   
    20     9    10 1   
    21     9    11 1   
    22     9    22 1   
    23    10    23 1   
    24    11    12 1   
    25    11    24 1   
    26    12    25 1   
@<TRIPOS>SUBSTRUCTURE
     1 CGB         1 TEMP              0 ****  ****    0 ROOT
