@<TRIPOS>MOLECULE
CGB
   25    26     1     0     0
SMALL
bcc


@<TRIPOS>ATOM
      1 O2          -2.6140     0.0810    -0.5650 oh         1 CGB      -0.553800
      2 C2          -1.3070    -0.1980    -0.1770 c5         1 CGB       0.368000
      3 N1          -0.6720    -1.1930    -1.0480 n7         1 CGB      -0.802200
      4 C8          -1.1610    -0.7620     1.2560 c5         1 CGB      -0.142400
      5 C7           0.0610    -1.6950     1.1710 c5         1 CGB      -0.111400
      6 C6           0.5220    -1.5640    -0.2980 c5         1 CGB       0.156500
      7 C3          -0.4930     1.0870    -0.3700 c6         1 CGB       0.169100
      8 O3          -1.0860     2.1270     0.3660 oh         1 CGB      -0.585800
      9 C4           0.9560     0.8640     0.0620 c6         1 CGB       0.069100
     10 O4           1.7250     1.9850    -0.3440 oh         1 CGB      -0.607800
     11 C5           1.5250    -0.4340    -0.5090 c6         1 CGB       0.140100
     12 O5           2.7450    -0.7810     0.1040 oh         1 CGB      -0.600800
     13 HO          -3.1890    -0.6310    -0.2650 ho         1 CGB       0.404000
     14 H1          -1.2810    -2.0040    -1.1180 hn         1 CGB       0.356800
     15 H8C1        -1.0490     0.0250     2.0020 hc         1 CGB       0.059700
     16 H8C2        -2.0600    -1.3230     1.5240 hc         1 CGB       0.059700
     17 H7C1         0.8460    -1.4470     1.8870 hc         1 CGB       0.057700
     18 H7C2        -0.2290    -2.7280     1.3690 hc         1 CGB       0.057700
     19 H6           0.9410    -2.4940    -0.6860 h1         1 CGB       0.082700
     20 H3          -0.5050     1.3130    -1.4480 h1         1 CGB       0.075700
     21 HA          -0.5120     2.8970     0.2990 ho         1 CGB       0.412000
     22 H4           0.9760     0.7850     1.1570 h1         1 CGB       0.049700
     23 HB           2.2680     2.2750     0.3930 ho         1 CGB       0.408000
     24 H5           1.6550    -0.3120    -1.5940 h1         1 CGB       0.066700
     25 HC           3.3890    -0.0940    -0.0910 ho         1 CGB       0.411000
@<TRIPOS>BOND
     1     1     2 1   
     2     1    13 1   
     3     2     3 1   
     4     2     4 1   
     5     2     7 1   
     6     3     6 1   
     7     3    14 1   
     8     4     5 1   
     9     4    15 1   
    10     4    16 1   
    11     5     6 1   
    12     5    17 1   
    13     5    18 1   
    14     6    11 1   
    15     6    19 1   
    16     7     8 1   
    17     7     9 1   
    18     7    20 1   
    19     8    21 1   
    20     9    10 1   
    21     9    11 1   
    22     9    22 1   
    23    10    23 1   
    24    11    12 1   
    25    11    24 1   
    26    12    25 1   
@<TRIPOS>SUBSTRUCTURE
     1 CGB         1 TEMP              0 ****  ****    0 ROOT
