@<TRIPOS>MOLECULE
CGC
   43    44     1     0     0
SMALL
bcc


@<TRIPOS>ATOM
      1 C1           1.3720    -0.3770     0.0280 c6         1 CGC       0.326900
      2 O1           0.1460    -0.7330    -0.4930 os         1 CGC      -0.401600
      3 C2           2.4150    -1.3430    -0.5300 c6         1 CGC       0.088100
      4 C3           3.7970    -0.9030    -0.0720 c6         1 CGC       0.114100
      5 O2           2.2130    -2.6560    -0.0720 oh         1 CGC      -0.614800
      6 O5           1.6660     0.9320    -0.3830 os         1 CGC      -0.390600
      7 C5           2.8920     1.4120     0.1260 c6         1 CGC       0.158100
      8 C4           4.0400     0.5600    -0.4220 c6         1 CGC       0.114100
      9 O4           5.2430     1.0250     0.1390 oh         1 CGC      -0.602800
     10 O3           4.8260    -1.6550    -0.6730 oh         1 CGC      -0.612800
     11 C6           3.0290     2.8660    -0.2710 c3         1 CGC       0.151400
     12 O6           2.0080     3.6080     0.3520 oh         1 CGC      -0.573800
     13 O61         -2.6590    -0.6020     2.6840 oh         1 CGC      -0.611800
     14 C61         -2.9020    -1.4110     1.5790 c6         1 CGC       0.305900
     15 C51         -1.5670    -1.6940     0.8840 c6         1 CGC       0.099100
     16 O51         -0.6120    -2.2260     1.7640 oh         1 CGC      -0.591800
     17 C41         -1.0100    -0.4180     0.2640 c6         1 CGC       0.151100
     18 C31         -2.0530     0.1900    -0.6610 c6         1 CGC       0.147100
     19 O31         -1.5890     1.4120    -1.1570 oh         1 CGC      -0.631800
     20 C21         -3.3800     0.3730     0.0990 c6         1 CGC      -0.046900
     21 O21         -3.8070    -0.8440     0.6730 os         1 CGC      -0.390600
     22 C11         -4.4870     0.9180    -0.8250 c          1 CGC       0.940600
     23 O1A         -5.6200     0.4380    -0.7460 o          1 CGC      -0.808800
     24 O1B         -4.1190     1.8520    -1.5870 o          1 CGC      -0.808800
     25 H1           1.3760    -0.4300     1.1310 h2         1 CGC       0.043700
     26 H2           2.3680    -1.2900    -1.6300 h1         1 CGC       0.065700
     27 H3           3.8370    -0.9960     1.0250 h1         1 CGC       0.048700
     28 H4           1.3000    -2.9040    -0.2510 ho         1 CGC       0.430000
     29 H5           2.9020     1.3390     1.2270 h1         1 CGC       0.052700
     30 H6           4.0510     0.6610    -1.5200 h1         1 CGC       0.055700
     31 H7           5.9510     0.4370    -0.1440 ho         1 CGC       0.417000
     32 H8           4.8090    -2.5460    -0.3110 ho         1 CGC       0.420000
     33 H9           4.0220     3.2150     0.0290 h1         1 CGC       0.027700
     34 H10          2.9780     2.9410    -1.3670 h1         1 CGC       0.027700
     35 H11          2.1620     4.5380     0.1610 ho         1 CGC       0.396000
     36 H12         -3.4580    -0.5610     3.2220 ho         1 CGC       0.406000
     37 H13         -3.3660    -2.3590     1.8800 h2         1 CGC       0.035700
     38 H14         -1.7800    -2.3970     0.0660 h1         1 CGC       0.045700
     39 H15         -0.8100    -3.1560     1.9080 ho         1 CGC       0.391000
     40 H16         -0.7650     0.3070     1.0510 h1         1 CGC       0.080700
     41 H17         -2.2320    -0.5340    -1.4770 h1         1 CGC       0.030700
     42 H18         -2.4140     1.8390    -1.4870 ho         1 CGC       0.470000
     43 H19         -3.2120     1.1330     0.8780 h1         1 CGC       0.045700
@<TRIPOS>BOND
     1     1     2 1   
     2     1     3 1   
     3     1     6 1   
     4     1    25 1   
     5     2    17 1   
     6     3     4 1   
     7     3     5 1   
     8     3    26 1   
     9     4     8 1   
    10     4    10 1   
    11     4    27 1   
    12     5    28 1   
    13     6     7 1   
    14     7     8 1   
    15     7    11 1   
    16     7    29 1   
    17     8     9 1   
    18     8    30 1   
    19     9    31 1   
    20    10    32 1   
    21    11    12 1   
    22    11    33 1   
    23    11    34 1   
    24    12    35 1   
    25    13    14 1   
    26    13    36 1   
    27    14    15 1   
    28    14    21 1   
    29    14    37 1   
    30    15    16 1   
    31    15    17 1   
    32    15    38 1   
    33    16    39 1   
    34    17    18 1   
    35    17    40 1   
    36    18    19 1   
    37    18    20 1   
    38    18    41 1   
    39    19    42 1   
    40    20    21 1   
    41    20    22 1   
    42    20    43 1   
    43    22    23 1   
    44    22    24 1   
@<TRIPOS>SUBSTRUCTURE
     1 CGC         1 TEMP              0 ****  ****    0 ROOT
