@<TRIPOS>MOLECULE
CGC
   43    44     1     0     0
SMALL
No Charge or Current Charge


@<TRIPOS>ATOM
      1 C1           1.2890    -0.0400    -0.1790 c6         1 CGC       0.373300
      2 O1           0.0250    -0.1970    -0.8500 os         1 CGC      -0.448000
      3 C2           2.2830    -1.1890    -0.5680 c6         1 CGC       0.111300
      4 C3           3.6420    -0.9220     0.1390 c6         1 CGC       0.137300
      5 O2           1.7950    -2.5160    -0.2370 oh         1 CGC      -0.737000
      6 O5           1.8350     1.2380    -0.5460 os         1 CGC      -0.437000
      7 C5           3.0760     1.5640     0.1360 c6         1 CGC       0.181300
      8 C4           4.1680     0.5020    -0.2160 c6         1 CGC       0.137300
      9 O4           5.4090     0.7420     0.4740 oh         1 CGC      -0.725000
     10 O3           4.6000    -1.9270    -0.2330 oh         1 CGC      -0.675000
     11 C6           3.4980     3.0140    -0.2750 c3         1 CGC       0.174600
     12 O6           2.4820     4.0030    -0.0110 oh         1 CGC      -0.696000
     13 O61         -2.5800    -0.8740     2.6300 oh         1 CGC      -0.674000
     14 C61         -2.6790    -1.7070     1.4780 c6         1 CGC       0.352300
     15 C51         -1.3520    -1.6870     0.6450 c6         1 CGC       0.122300
     16 O51         -0.2240    -2.0910     1.4600 oh         1 CGC      -0.714000
     17 C41         -1.1490    -0.2750     0.0040 c6         1 CGC       0.174300
     18 C31         -2.4090     0.1240    -0.8170 c6         1 CGC       0.170300
     19 O31         -2.2110     1.4080    -1.4330 oh         1 CGC      -0.754000
     20 C21         -3.6610     0.0960     0.1010 c6         1 CGC      -0.023700
     21 O21         -3.7920    -1.2430     0.6900 os         1 CGC      -0.437000
     22 C11         -4.9300     0.5550    -0.6940 c          1 CGC       0.730000
     23 O1A         -5.6690    -0.3330    -1.1030 o          1 CGC      -0.703500
     24 O1B         -5.4200     1.6200    -0.3340 o          1 CGC      -0.703500
     25 H1           1.1380    -0.0520     0.9110 h2         1 CGC       0.043700
     26 H2           2.4460    -1.1210    -1.6540 h1         1 CGC       0.065700
     27 H3           3.4700    -0.9620     1.2260 h1         1 CGC       0.048700
     28 H4           1.0100    -2.3890     0.3780 ho         1 CGC       0.529000
     29 H5           2.8950     1.5560     1.2200 h1         1 CGC       0.052700
     30 H6           4.3380     0.5410    -1.3030 h1         1 CGC       0.055700
     31 H7           5.8910    -0.1200     0.4300 ho         1 CGC       0.516000
     32 H8           4.0690    -2.7530    -0.3210 ho         1 CGC       0.459000
     33 H9           4.4170     3.2720     0.2690 h1         1 CGC       0.027700
     34 H10          3.7460     3.0070    -1.3450 h1         1 CGC       0.027700
     35 H11          2.8200     4.8610    -0.3590 ho         1 CGC       0.495000
     36 H12         -3.4960    -0.8110     2.9730 ho         1 CGC       0.445000
     37 H13         -2.8820    -2.7400     1.7990 h2         1 CGC       0.035700
     38 H14         -1.4730    -2.4070    -0.1770 h1         1 CGC       0.045700
     39 H15         -0.4760    -1.8510     2.3870 ho         1 CGC       0.490000
     40 H16         -1.0400     0.4640     0.8130 h1         1 CGC       0.080700
     41 H17         -2.5530    -0.6320    -1.6040 h1         1 CGC       0.030700
     42 H18         -1.2640     1.4100    -1.7230 ho         1 CGC       0.569000
     43 H19         -3.5200     0.8240     0.9130 h1         1 CGC       0.045700
@<TRIPOS>BOND
     1     1     2 1   
     2     1     3 1   
     3     1     6 1   
     4     1    25 1   
     5     2    17 1   
     6     3     4 1   
     7     3     5 1   
     8     3    26 1   
     9     4     8 1   
    10     4    10 1   
    11     4    27 1   
    12     5    28 1   
    13     6     7 1   
    14     7     8 1   
    15     7    11 1   
    16     7    29 1   
    17     8     9 1   
    18     8    30 1   
    19     9    31 1   
    20    10    32 1   
    21    11    12 1   
    22    11    33 1   
    23    11    34 1   
    24    12    35 1   
    25    13    14 1   
    26    13    36 1   
    27    14    15 1   
    28    14    21 1   
    29    14    37 1   
    30    15    16 1   
    31    15    17 1   
    32    15    38 1   
    33    16    39 1   
    34    17    18 1   
    35    17    40 1   
    36    18    19 1   
    37    18    20 1   
    38    18    41 1   
    39    19    42 1   
    40    20    21 1   
    41    20    22 1   
    42    20    43 1   
    43    22    23 1   
    44    22    24 1   
@<TRIPOS>SUBSTRUCTURE
     1 CGC         1 TEMP              0 ****  ****    0 ROOT
