@<TRIPOS>MOLECULE
CGD
   15    16     1     0     0
SMALL
bcc


@<TRIPOS>ATOM
      1 C4          -2.8110     0.5700     0.0080 ca         1 CGD      -0.129000
      2 C5          -1.6400     1.3120     0.0190 ca         1 CGD      -0.082000
      3 C6          -0.4360     0.6250     0.0140 ca         1 CGD      -0.072100
      4 C3          -2.7720    -0.8260    -0.0070 ca         1 CGD      -0.120000
      5 C2          -1.5660    -1.5060    -0.0110 ca         1 CGD      -0.087000
      6 C1          -0.3790    -0.7790    -0.0010 ca         1 CGD       0.130400
      7 C            1.7670    -0.3840     0.0090 cc         1 CGD       0.605500
      8 S            1.1830     1.2640     0.0250 ss         1 CGD      -0.075100
      9 N            0.8900    -1.3170    -0.0030 nd         1 CGD      -0.637100
     10 H3          -3.7640     1.0810     0.0110 ha         1 CGD       0.135000
     11 H4          -1.6690     2.3930     0.0310 ha         1 CGD       0.142000
     12 H2          -3.6980    -1.3860    -0.0150 ha         1 CGD       0.136000
     13 H1          -1.5360    -2.5880    -0.0230 ha         1 CGD       0.149000
     14 H            3.2870    -1.4880     0.0040 ho         1 CGD       0.451000
     15 O            3.0730    -0.5430     0.0110 oh         1 CGD      -0.545600
@<TRIPOS>BOND
     1     1     2 ar  
     2     1     4 ar  
     3     1    10 1   
     4     2     3 ar  
     5     2    11 1   
     6     3     6 ar  
     7     3     8 1   
     8     4     5 ar  
     9     4    12 1   
    10     5     6 ar  
    11     5    13 1   
    12     6     9 1   
    13     7     8 1   
    14     7     9 2   
    15     7    15 1   
    16    14    15 1   
@<TRIPOS>SUBSTRUCTURE
     1 CGD         1 TEMP              0 ****  ****    0 ROOT
