@<TRIPOS>MOLECULE
CGD
   15    16     1     0     0
SMALL
No Charge or Current Charge


@<TRIPOS>ATOM
      1 C4          -2.8250     0.5630     0.0080 ca         1 CGD      -0.111000
      2 C5          -1.6340     1.3140     0.0190 ca         1 CGD      -0.064000
      3 C6          -0.4100     0.6290     0.0150 ca         1 CGD      -0.199000
      4 C3          -2.7710    -0.8470    -0.0070 ca         1 CGD      -0.102000
      5 C2          -1.5260    -1.5080    -0.0110 ca         1 CGD      -0.069000
      6 C1          -0.3430    -0.7520     0.0000 ca         1 CGD       0.130400
      7 C            1.7940    -0.3010     0.0110 cc         1 CGD       0.605500
      8 S            1.1830     1.3700     0.0270 ss         1 CGD       0.051800
      9 N            0.9300    -1.3120    -0.0020 nd         1 CGD      -0.637100
     10 H3          -3.7870     1.0710     0.0110 ha         1 CGD       0.117000
     11 H4          -1.6650     2.4020     0.0300 ha         1 CGD       0.124000
     12 H2          -3.6930    -1.4250    -0.0160 ha         1 CGD       0.118000
     13 H1          -1.4800    -2.5940    -0.0220 ha         1 CGD       0.131000
     14 H            3.0660    -1.5790     0.0000 ho         1 CGD       0.490000
     15 O            3.0910    -0.6020     0.0110 oh         1 CGD      -0.584600
@<TRIPOS>BOND
     1     1     2 ar  
     2     1     4 ar  
     3     1    10 1   
     4     2     3 ar  
     5     2    11 1   
     6     3     6 ar  
     7     3     8 1   
     8     4     5 ar  
     9     4    12 1   
    10     5     6 ar  
    11     5    13 1   
    12     6     9 1   
    13     7     8 1   
    14     7     9 2   
    15     7    15 1   
    16    14    15 1   
@<TRIPOS>SUBSTRUCTURE
     1 CGD         1 TEMP              0 ****  ****    0 ROOT
