@<TRIPOS>MOLECULE
CGE
   37    39     1     0     0
SMALL
abcg2


@<TRIPOS>ATOM
      1 C            1.0560    -1.6300     0.7300 c          1 CGE       0.587100
      2 N           -0.6320    -0.0190    -0.0480 n3         1 CGE      -0.695600
      3 O            0.5870    -1.7720     1.8290 o          1 CGE      -0.466000
      4 CL1          3.2660    -0.0330    -1.9970 cl         1 CGE      -0.201000
      5 CA           0.7320    -0.4740    -0.2130 c3         1 CGE       0.172800
      6 CAA          2.4910    -3.4710     1.0180 c3         1 CGE       0.151900
      7 CAD          3.5520     2.5650     0.9950 ca         1 CGE      -0.093000
      8 CAE          2.4050     2.3210     1.7390 ca         1 CGE      -0.117000
      9 CAF         -5.3010    -0.6360    -0.1690 cc         1 CGE      -0.238000
     10 CAG          3.8000     1.8310    -0.1520 ca         1 CGE      -0.113000
     11 CAH          1.5140     1.3450     1.3280 ca         1 CGE      -0.071000
     12 CAI         -4.1630    -1.3790    -0.1980 cd         1 CGE      -0.118000
     13 CAJ         -2.2150     1.8070    -0.4520 c6         1 CGE       0.003900
     14 CAK         -0.9170     1.1420    -0.8880 c6         1 CGE       0.162800
     15 CAL         -1.5820    -1.0880    -0.3380 c6         1 CGE       0.225100
     16 OAM          1.9800    -2.4120     0.2050 os         1 CGE      -0.436100
     17 SAN         -4.9580     1.0460    -0.2570 ss         1 CGE       0.192000
     18 CAP          2.8960     0.8550    -0.5520 ca         1 CGE       0.135000
     19 CAQ         -2.9880    -0.5760    -0.2920 cd         1 CGE      -0.108300
     20 CAR         -3.2640     0.7550    -0.3370 cc         1 CGE      -0.197300
     21 CAS          1.7350     0.6000     0.1700 ca         1 CGE      -0.096300
     22 HA           0.9220    -0.8080    -1.2430 h1         1 CGE       0.068700
     23 HAA          3.2310    -3.9810     0.4100 h1         1 CGE       0.049367
     24 HAAA         2.9650    -3.0850     1.9200 h1         1 CGE       0.049367
     25 HAAB         1.7030    -4.1720     1.2950 h1         1 CGE       0.049367
     26 HAD          4.2580     3.3240     1.3060 ha         1 CGE       0.119000
     27 HAE          2.2060     2.8870     2.6390 ha         1 CGE       0.121000
     28 HAF         -6.3200    -0.9820    -0.0970 h4         1 CGE       0.150000
     29 HAG          4.6920     2.0140    -0.7360 ha         1 CGE       0.130000
     30 HAH          0.6140     1.1610     1.9000 ha         1 CGE       0.148000
     31 HAI         -4.1550    -2.4590    -0.1500 ha         1 CGE       0.133000
     32 HAJ         -2.0700     2.3180     0.5040 hc         1 CGE       0.058700
     33 HAJA        -2.4920     2.5720    -1.1800 hc         1 CGE       0.058700
     34 HAK         -0.1060     1.8640    -0.8050 h1         1 CGE       0.042700
     35 HAKA        -0.9840     0.8560    -1.9500 h1         1 CGE       0.042700
     36 HAL         -1.3850    -1.5370    -1.3270 h1         1 CGE       0.050200
     37 HALA        -1.4760    -1.8880     0.3950 h1         1 CGE       0.050200
@<TRIPOS>BOND
     1     1     3 2   
     2     1     5 1   
     3     1    16 1   
     4     2     5 1   
     5     2    14 1   
     6     2    15 1   
     7     4    18 1   
     8     5    21 1   
     9     5    22 1   
    10     6    16 1   
    11     6    23 1   
    12     6    24 1   
    13     6    25 1   
    14     7     8 ar  
    15     7    10 ar  
    16     7    26 1   
    17     8    11 ar  
    18     8    27 1   
    19     9    12 2   
    20     9    17 1   
    21     9    28 1   
    22    10    18 ar  
    23    10    29 1   
    24    11    21 ar  
    25    11    30 1   
    26    12    19 1   
    27    12    31 1   
    28    13    14 1   
    29    13    20 1   
    30    13    32 1   
    31    13    33 1   
    32    14    34 1   
    33    14    35 1   
    34    15    19 1   
    35    15    36 1   
    36    15    37 1   
    37    17    20 1   
    38    18    21 ar  
    39    19    20 2   
@<TRIPOS>SUBSTRUCTURE
     1 CGE         1 TEMP              0 ****  ****    0 ROOT
