@<TRIPOS>MOLECULE
CGE
   37    39     1     0     0
SMALL
No Charge or Current Charge


@<TRIPOS>ATOM
      1 C            1.3150    -1.6040     0.7960 c          1 CGE       0.587100
      2 N           -0.5380     0.0560     0.0080 n3         1 CGE      -0.695600
      3 O            1.4490    -1.6090     2.0160 o          1 CGE      -0.466000
      4 Cl1          3.6130    -0.0590    -1.6530 cl         1 CGE      -0.201000
      5 CA           0.9130    -0.3470    -0.0440 c3         1 CGE       0.172800
      6 CAA          1.8640    -3.9500     0.6410 c3         1 CGE       0.151900
      7 CAD          3.5800     2.9320     1.0660 ca         1 CGE      -0.093000
      8 CAE          2.3720     2.7350     1.7520 ca         1 CGE      -0.117000
      9 CAF         -5.2430    -0.8920    -0.1490 cc         1 CGE      -0.238000
     10 CAG          3.9370     2.0650     0.0200 ca         1 CGE      -0.113000
     11 CAH          1.5200     1.6780     1.3880 ca         1 CGE      -0.071000
     12 CAI         -4.0270    -1.5240    -0.0500 cd         1 CGE      -0.118000
     13 CAJ         -2.2870     1.7520    -0.6680 c6         1 CGE       0.003900
     14 CAK         -0.8730     1.1690    -0.9360 c6         1 CGE       0.162800
     15 CAL         -1.4670    -1.1040    -0.1820 c6         1 CGE       0.225100
     16 OAM          1.4940    -2.7140     0.0030 os         1 CGE      -0.436100
     17 SAN         -5.0380     0.8290    -0.4700 ss         1 CGE       0.192000
     18 CAP          3.0880     1.0070    -0.3480 ca         1 CGE       0.135000
     19 CAQ         -2.9170    -0.6530    -0.2280 cd         1 CGE      -0.108300
     20 CAR         -3.2880     0.6440    -0.4720 cc         1 CGE      -0.197300
     21 CAS          1.8600     0.8080     0.3270 ca         1 CGE      -0.096300
     22 HA           1.1190    -0.6300    -1.0840 h1         1 CGE       0.068700
     23 HAA          1.9730    -4.7470    -0.1050 h1         1 CGE       0.049367
     24 HAAA         2.8210    -3.8470     1.1700 h1         1 CGE       0.049367
     25 HAAB         1.0990    -4.2630     1.3630 h1         1 CGE       0.049367
     26 HAD          4.2410     3.7490     1.3480 ha         1 CGE       0.119000
     27 HAE          2.0950     3.4000     2.5670 ha         1 CGE       0.121000
     28 HAF         -6.2390    -1.3040    -0.0570 h4         1 CGE       0.150000
     29 HAG          4.8770     2.2110    -0.5060 ha         1 CGE       0.130000
     30 HAH          0.5890     1.5350     1.9330 ha         1 CGE       0.148000
     31 HAI         -3.9260    -2.5880     0.1440 ha         1 CGE       0.133000
     32 HAJ         -2.2480     2.3840     0.2290 hc         1 CGE       0.058700
     33 HAJA        -2.5780     2.4090    -1.4990 hc         1 CGE       0.058700
     34 HAK         -0.1470     1.9900    -0.8620 h1         1 CGE       0.042700
     35 HAKA        -0.8310     0.8020    -1.9730 h1         1 CGE       0.042700
     36 HAL         -1.2300    -1.6310    -1.1180 h1         1 CGE       0.050200
     37 HALA        -1.3450    -1.8300     0.6350 h1         1 CGE       0.050200
@<TRIPOS>BOND
     1     1     3 2   
     2     1     5 1   
     3     1    16 1   
     4     2     5 1   
     5     2    14 1   
     6     2    15 1   
     7     4    18 1   
     8     5    21 1   
     9     5    22 1   
    10     6    16 1   
    11     6    23 1   
    12     6    24 1   
    13     6    25 1   
    14     7     8 ar  
    15     7    10 ar  
    16     7    26 1   
    17     8    11 ar  
    18     8    27 1   
    19     9    12 2   
    20     9    17 1   
    21     9    28 1   
    22    10    18 ar  
    23    10    29 1   
    24    11    21 ar  
    25    11    30 1   
    26    12    19 1   
    27    12    31 1   
    28    13    14 1   
    29    13    20 1   
    30    13    32 1   
    31    13    33 1   
    32    14    34 1   
    33    14    35 1   
    34    15    19 1   
    35    15    36 1   
    36    15    37 1   
    37    17    20 1   
    38    18    21 ar  
    39    19    20 2   
@<TRIPOS>SUBSTRUCTURE
     1 CGE         1 TEMP              0 ****  ****    0 ROOT
