@<TRIPOS>MOLECULE
CGF
   31    31     1     0     0
SMALL
bcc


@<TRIPOS>ATOM
      1 O5           0.1320    -0.8400    -0.4630 os         1 CGF      -0.420600
      2 C1           0.6880     0.3970    -0.1050 c6         1 CGF       0.378000
      3 C7           1.0790     0.3930     1.4000 c3         1 CGF       0.349300
      4 N7           1.6690     1.6220     1.7970 n8         1 CGF      -0.921800
      5 O7           1.8660    -0.7620     1.6360 oh         1 CGF      -0.621800
      6 N1           1.9090     0.5600    -0.8910 n2         1 CGF      -0.437200
      7 N2           2.5040    -0.4690    -1.1640 n1         1 CGF       0.254000
      8 N3           3.1220    -1.3460    -1.4930 n1         1 CGF      -0.046000
      9 C2          -0.2860     1.4900    -0.5710 c6         1 CGF       0.165100
     10 O2           0.2380     2.7670    -0.3610 oh         1 CGF      -0.553800
     11 C3          -1.6410     1.2870     0.0980 c6         1 CGF       0.107100
     12 O3          -2.5010     2.2810    -0.4040 oh         1 CGF      -0.602800
     13 C4          -2.1650    -0.1090    -0.2180 c6         1 CGF       0.075100
     14 O4          -3.3480    -0.3020     0.5250 oh         1 CGF      -0.598800
     15 C5          -1.1170    -1.1760     0.1200 c6         1 CGF       0.135100
     16 C6          -1.5180    -2.5270    -0.4310 c3         1 CGF       0.146400
     17 O6          -0.6100    -3.5030     0.0120 oh         1 CGF      -0.574800
     18 H7           0.1730     0.2590     1.9990 h2         1 CGF       0.080700
     19 HN71         1.9640     1.5850     2.7630 hn         1 CGF       0.368800
     20 HN72         2.4630     1.8790     1.2250 hn         1 CGF       0.368800
     21 HO7          2.7890    -0.4920     1.6770 ho         1 CGF       0.399000
     22 H2          -0.4220     1.3060    -1.6490 h1         1 CGF       0.049700
     23 HO2         -0.3520     3.3950    -0.7900 ho         1 CGF       0.418000
     24 H3          -1.5320     1.3900     1.1880 h1         1 CGF       0.064700
     25 HO3         -3.3350     2.2300     0.0750 ho         1 CGF       0.423000
     26 H4          -2.3680    -0.1530    -1.2980 h1         1 CGF       0.052700
     27 HO4         -3.9590    -0.8400     0.0160 ho         1 CGF       0.412000
     28 H5          -1.0330    -1.2580     1.2120 h1         1 CGF       0.075700
     29 H61         -2.5380    -2.7420    -0.0870 h1         1 CGF       0.023200
     30 H62         -1.5540    -2.4650    -1.5280 h1         1 CGF       0.023200
     31 HO6         -0.9040    -4.3540    -0.3230 ho         1 CGF       0.405000
@<TRIPOS>BOND
     1     1     2 1   
     2     1    15 1   
     3     2     3 1   
     4     2     6 1   
     5     2     9 1   
     6     3     4 1   
     7     3     5 1   
     8     3    18 1   
     9     4    19 1   
    10     4    20 1   
    11     5    21 1   
    12     6     7 1   
    13     7     8 3   
    14     9    10 1   
    15     9    11 1   
    16     9    22 1   
    17    10    23 1   
    18    11    12 1   
    19    11    13 1   
    20    11    24 1   
    21    12    25 1   
    22    13    14 1   
    23    13    15 1   
    24    13    26 1   
    25    14    27 1   
    26    15    16 1   
    27    15    28 1   
    28    16    17 1   
    29    16    29 1   
    30    16    30 1   
    31    17    31 1   
@<TRIPOS>SUBSTRUCTURE
     1 CGF         1 TEMP              0 ****  ****    0 ROOT
