@<TRIPOS>MOLECULE
CGF
   31    31     1     0     0
SMALL
No Charge or Current Charge


@<TRIPOS>ATOM
      1 O5           0.2600    -0.8880    -0.2690 os         1 CGF      -0.467000
      2 C1           0.8410     0.4210     0.0040 c6         1 CGF       0.401200
      3 C7           1.0230     0.5190     1.6100 c3         1 CGF       0.372500
      4 N7           1.9490     1.4850     2.1510 n8         1 CGF      -1.032200
      5 O7           1.6420    -0.6210     2.1640 oh         1 CGF      -0.744000
      6 N1           2.1960     0.5300    -0.5910 n2         1 CGF      -0.437200
      7 N2           2.3360     0.1330    -1.7600 n1         1 CGF       0.254000
      8 N3           2.4820    -0.0930    -2.8650 n1         1 CGF      -0.046000
      9 C2          -0.1270     1.5260    -0.5980 c6         1 CGF       0.188300
     10 O2           0.2850     2.8900    -0.3510 oh         1 CGF      -0.676000
     11 C3          -1.5880     1.3300    -0.0980 c6         1 CGF       0.130300
     12 O3          -2.4650     2.2910    -0.7130 oh         1 CGF      -0.665000
     13 C4          -2.0820    -0.1120    -0.4090 c6         1 CGF       0.098300
     14 O4          -3.4280    -0.2760     0.0870 oh         1 CGF      -0.721000
     15 C5          -1.0880    -1.1340     0.2280 c6         1 CGF       0.158300
     16 C6          -1.4420    -2.6220    -0.0910 c3         1 CGF       0.169600
     17 O6          -0.4870    -3.5500     0.4580 oh         1 CGF      -0.697000
     18 H7           0.0360     0.6410     2.0780 h2         1 CGF       0.080700
     19 HN71         2.3060     1.0260     2.9930 hn         1 CGF       0.424000
     20 HN72         2.7630     1.4570     1.5300 hn         1 CGF       0.424000
     21 HO7          1.3770    -1.3620     1.5690 ho         1 CGF       0.498000
     22 H2          -0.1450     1.3630    -1.6860 h1         1 CGF       0.049700
     23 HO2         -0.5230     3.4270    -0.5330 ho         1 CGF       0.517000
     24 H3          -1.6080     1.4680     0.9930 h1         1 CGF       0.064700
     25 HO3         -3.3730     1.9320    -0.5700 ho         1 CGF       0.462000
     26 H4          -2.0650    -0.2540    -1.5010 h1         1 CGF       0.052700
     27 HO4         -3.8680    -0.9750    -0.4530 ho         1 CGF       0.511000
     28 H5          -1.1110    -1.0260     1.3220 h1         1 CGF       0.075700
     29 H61         -2.4410    -2.8380     0.3100 h1         1 CGF       0.023200
     30 H62         -1.4940    -2.7370    -1.1820 h1         1 CGF       0.023200
     31 HO6         -0.7440    -4.4480     0.1430 ho         1 CGF       0.504000
@<TRIPOS>BOND
     1     1     2 1   
     2     1    15 1   
     3     2     3 1   
     4     2     6 1   
     5     2     9 1   
     6     3     4 1   
     7     3     5 1   
     8     3    18 1   
     9     4    19 1   
    10     4    20 1   
    11     5    21 1   
    12     6     7 1   
    13     7     8 3   
    14     9    10 1   
    15     9    11 1   
    16     9    22 1   
    17    10    23 1   
    18    11    12 1   
    19    11    13 1   
    20    11    24 1   
    21    12    25 1   
    22    13    14 1   
    23    13    15 1   
    24    13    26 1   
    25    14    27 1   
    26    15    16 1   
    27    15    28 1   
    28    16    17 1   
    29    16    29 1   
    30    16    30 1   
    31    17    31 1   
@<TRIPOS>SUBSTRUCTURE
     1 CGF         1 TEMP              0 ****  ****    0 ROOT
