@<TRIPOS>MOLECULE
CGG
   42    43     1     0     0
SMALL
No Charge or Current Charge


@<TRIPOS>ATOM
      1 C1          -4.5270     0.6560    -0.2280 c6         1 CGG       0.036000
      2 C2          -4.8950    -0.6790     0.4950 c6         1 CGG      -0.098400
      3 C3          -4.0010    -1.8740     0.0660 c6         1 CGG       0.129300
      4 C4          -2.4870    -1.5720     0.2800 c6         1 CGG       0.160300
      5 C5          -2.0880    -0.2260    -0.4160 c6         1 CGG       0.182300
      6 C7           1.6320    -0.0760    -0.2060 ce         1 CGG      -0.241200
      7 C8           2.8450    -0.5920    -0.5650 cf         1 CGG      -0.113200
      8 C9           4.2020    -0.1690    -0.1620 ca         1 CGG      -0.051800
      9 C10          4.4130     0.9140     0.7200 ca         1 CGG      -0.087000
     10 C11          5.7160     1.2970     1.0890 ca         1 CGG      -0.165000
     11 C12          6.8230     0.6000     0.5790 ca         1 CGG       0.045100
     12 O2          -4.7450     0.4970    -1.6570 oh         1 CGG      -0.719000
     13 O3          -4.3730    -3.0490     0.8110 oh         1 CGG      -0.694000
     14 O4          -2.1930    -1.5730     1.6900 oh         1 CGG      -0.652000
     15 O5          -0.7120     0.1380    -0.1530 os         1 CGG      -0.427100
     16 O6           0.1840    -1.5300    -1.4490 o          1 CGG      -0.510000
     17 O7           8.0930     0.9700     0.9360 oh         1 CGG      -0.561100
     18 C15         -3.0110     0.9360     0.0380 c6         1 CGG      -0.065400
     19 C           -5.4460     1.8240     0.3520 c          1 CGG       0.699000
     20 O           -6.6430     1.7210     0.1120 o          1 CGG      -0.707500
     21 C14          5.3210    -0.8630    -0.6680 ca         1 CGG      -0.105000
     22 C13          6.6220    -0.4820    -0.3010 ca         1 CGG       0.113100
     23 H1          -4.8210    -0.5340     1.5820 hc         1 CGG       0.054200
     24 H2          -5.9470    -0.9280     0.2990 hc         1 CGG       0.054200
     25 H3          -4.1570    -2.0550    -1.0080 h1         1 CGG       0.051700
     26 H4          -1.9250    -2.3850    -0.2020 h1         1 CGG       0.034700
     27 H5          -2.2070    -0.3480    -1.5030 h1         1 CGG       0.075700
     28 H6           1.5730     0.7700     0.4730 ha         1 CGG       0.198000
     29 H7           2.8330    -1.4430    -1.2510 ha         1 CGG       0.193000
     30 H8           3.5720     1.4690     1.1270 ha         1 CGG       0.126000
     31 H9           5.8550     2.1340     1.7690 ha         1 CGG       0.112000
     32 H10         -5.6840     0.7590    -1.8120 ho         1 CGG       0.481000
     33 H11         -5.2870    -3.2850     0.5340 ho         1 CGG       0.444000
     34 H12         -2.8280    -2.2330     2.0530 ho         1 CGG       0.447000
     35 H13          8.0390     1.7360     1.5500 ho         1 CGG       0.473000
     36 H14          8.4910    -0.7160    -0.4020 ho         1 CGG       0.478000
     37 H15         -2.7060     1.8520    -0.4860 hc         1 CGG       0.064700
     38 H16         -2.8520     1.1280     1.1080 hc         1 CGG       0.064700
     39 H18          5.1860    -1.7000    -1.3480 ha         1 CGG       0.134000
     40 C6           0.3190    -0.5890    -0.6800 c          1 CGG       0.595300
     41 O1          -4.9400     2.9270     0.5130 o          1 CGG      -0.707500
     42 O8           7.7020    -1.1550    -0.7920 oh         1 CGG      -0.538100
@<TRIPOS>BOND
     1     1     2 1   
     2     1    12 1   
     3     1    18 1   
     4     1    19 1   
     5     2     3 1   
     6     2    23 1   
     7     2    24 1   
     8     3     4 1   
     9     3    13 1   
    10     3    25 1   
    11     4     5 1   
    12     4    14 1   
    13     4    26 1   
    14     5    15 1   
    15     5    18 1   
    16     5    27 1   
    17     6     7 2   
    18     6    28 1   
    19     6    40 1   
    20     7     8 1   
    21     7    29 1   
    22     8     9 ar  
    23     8    21 ar  
    24     9    10 ar  
    25     9    30 1   
    26    10    11 ar  
    27    10    31 1   
    28    11    17 1   
    29    11    22 ar  
    30    12    32 1   
    31    13    33 1   
    32    14    34 1   
    33    15    40 1   
    34    16    40 2   
    35    17    35 1   
    36    18    37 1   
    37    18    38 1   
    38    19    20 1   
    39    19    41 1   
    40    21    22 ar  
    41    21    39 1   
    42    22    42 1   
    43    36    42 1   
@<TRIPOS>SUBSTRUCTURE
     1 CGG         1 TEMP              0 ****  ****    0 ROOT
