@<TRIPOS>MOLECULE
CGG
   42    43     1     0     0
SMALL
bcc


@<TRIPOS>ATOM
      1 C1          -4.4070     0.5590    -0.3280 c6         1 CGG       0.012800
      2 C2          -4.8620    -0.7030     0.4120 c6         1 CGG      -0.098400
      3 C3          -3.9610    -1.8900     0.0960 c6         1 CGG       0.106100
      4 C4          -2.5040    -1.5910     0.4480 c6         1 CGG       0.137100
      5 C5          -2.0650    -0.3400    -0.3020 c6         1 CGG       0.159100
      6 C7           1.5780    -0.0520    -0.0540 ce         1 CGG      -0.191200
      7 C8           2.7390    -0.5210    -0.5300 cf         1 CGG      -0.063200
      8 C9           4.0770    -0.1010    -0.1440 ca         1 CGG      -0.051800
      9 C10          4.3230     0.9240     0.7700 ca         1 CGG      -0.105000
     10 C11          5.6210     1.2770     1.0930 ca         1 CGG      -0.183000
     11 C12          6.6990     0.6190     0.5150 ca         1 CGG       0.045100
     12 O2          -4.5420     0.3730    -1.7210 oh         1 CGG      -0.656800
     13 O3          -4.3160    -3.0450     0.8320 oh         1 CGG      -0.631800
     14 O4          -2.3300    -1.3710     1.8270 oh         1 CGG      -0.589800
     15 O5          -0.7230     0.0150     0.0600 os         1 CGG      -0.403900
     16 O6           0.1770    -1.4170    -1.4140 o          1 CGG      -0.559000
     17 O7           7.9880     0.9090     0.7790 oh         1 CGG      -0.522100
     18 C15         -2.9450     0.8570     0.0170 c6         1 CGG      -0.065400
     19 C           -5.2960     1.7640     0.0820 c          1 CGG       0.909600
     20 O           -5.9160     2.2980    -0.8680 o          1 CGG      -0.812800
     21 C14          5.1690    -0.7570    -0.7230 ca         1 CGG      -0.123000
     22 C13          6.4700    -0.4130    -0.4060 ca         1 CGG       0.113100
     23 H1          -4.8550    -0.5150     1.4880 hc         1 CGG       0.054200
     24 H2          -5.8940    -0.9360     0.1310 hc         1 CGG       0.054200
     25 H3          -4.0070    -2.0960    -0.9820 h1         1 CGG       0.051700
     26 H4          -1.8940    -2.4430     0.1130 h1         1 CGG       0.034700
     27 H5          -2.1100    -0.5510    -1.3740 h1         1 CGG       0.075700
     28 H6           1.5380     0.7180     0.7070 ha         1 CGG       0.148000
     29 H7           2.6990    -1.3000    -1.2860 ha         1 CGG       0.143000
     30 H8           3.5070     1.4610     1.2340 ha         1 CGG       0.144000
     31 H9           5.8010     2.0780     1.8000 ha         1 CGG       0.130000
     32 H10         -5.1640     1.0910    -1.9560 ho         1 CGG       0.442000
     33 H11         -5.2670    -3.1730     0.7640 ho         1 CGG       0.405000
     34 H12         -2.7780    -2.0860     2.2930 ho         1 CGG       0.408000
     35 H13          8.0590     1.6440     1.3990 ho         1 CGG       0.434000
     36 H14          8.3370    -0.7400    -0.6900 ho         1 CGG       0.439000
     37 H15         -2.6030     1.7220    -0.5580 hc         1 CGG       0.064700
     38 H16         -2.8650     1.1160     1.0740 hc         1 CGG       0.064700
     39 H18          5.0030    -1.5550    -1.4380 ha         1 CGG       0.152000
     40 C6           0.2990    -0.5730    -0.5550 c          1 CGG       0.644300
     41 O1          -5.3200     2.0920     1.2760 o          1 CGG      -0.812800
     42 O8           7.4860    -1.0760    -0.9950 oh         1 CGG      -0.499100
@<TRIPOS>BOND
     1     1     2 1   
     2     1    12 1   
     3     1    18 1   
     4     1    19 1   
     5     2     3 1   
     6     2    23 1   
     7     2    24 1   
     8     3     4 1   
     9     3    13 1   
    10     3    25 1   
    11     4     5 1   
    12     4    14 1   
    13     4    26 1   
    14     5    15 1   
    15     5    18 1   
    16     5    27 1   
    17     6     7 2   
    18     6    28 1   
    19     6    40 1   
    20     7     8 1   
    21     7    29 1   
    22     8     9 ar  
    23     8    21 ar  
    24     9    10 ar  
    25     9    30 1   
    26    10    11 ar  
    27    10    31 1   
    28    11    17 1   
    29    11    22 ar  
    30    12    32 1   
    31    13    33 1   
    32    14    34 1   
    33    15    40 1   
    34    16    40 2   
    35    17    35 1   
    36    18    37 1   
    37    18    38 1   
    38    19    20 1   
    39    19    41 1   
    40    21    22 ar  
    41    21    39 1   
    42    22    42 1   
    43    36    42 1   
@<TRIPOS>SUBSTRUCTURE
     1 CGG         1 TEMP              0 ****  ****    0 ROOT
