@<TRIPOS>MOLECULE
CGH
   28    28     1     0     0
SMALL
No Charge or Current Charge


@<TRIPOS>ATOM
      1 C14         -3.4360     0.0220     0.0360 c          1 CGH       0.717000
      2 O32         -3.7520    -0.0220     1.2190 o          1 CGH      -0.737000
      3 C5          -1.9470     0.3970    -0.3270 c3         1 CGH       0.016800
      4 N21         -0.9000    -0.5650     0.1640 n7         1 CGH      -0.862400
      5 C49          0.5090    -0.2190    -0.1240 c3         1 CGH       0.183500
      6 C48          1.3420    -1.5270    -0.0550 c3         1 CGH      -0.090400
      7 C47          2.7790    -1.4500    -0.6190 c3         1 CGH      -0.065400
      8 C46          3.6880    -0.3520    -0.0190 c3         1 CGH      -0.066400
      9 C52          3.2870     1.0780    -0.4440 c3         1 CGH      -0.066400
     10 C51          2.1760     1.7490     0.3980 c3         1 CGH      -0.065400
     11 C50          1.0130     0.8520     0.8850 c3         1 CGH      -0.090400
     12 H5          -1.8780     0.4880    -1.4190 h1         1 CGH       0.010200
     13 H5A         -1.7660     1.3980     0.0860 h1         1 CGH       0.010200
     14 HN21        -1.0070    -0.6840     1.1800 hn         1 CGH       0.431000
     15 H49          0.5800     0.1820    -1.1450 h1         1 CGH       0.044700
     16 H48          1.3870    -1.8770     0.9830 hc         1 CGH       0.041200
     17 H48A         0.8160    -2.3110    -0.6160 hc         1 CGH       0.041200
     18 H47          3.2600    -2.4220    -0.4550 hc         1 CGH       0.024950
     19 H47A         2.7290    -1.3180    -1.7070 hc         1 CGH       0.024950
     20 H46          3.7180    -0.4330     1.0740 hc         1 CGH       0.025950
     21 H46A         4.7100    -0.5350    -0.3720 hc         1 CGH       0.025950
     22 H52          4.1760     1.7190    -0.3980 hc         1 CGH       0.025950
     23 H52A         2.9820     1.0680    -1.4980 hc         1 CGH       0.025950
     24 H51          2.6370     2.2110     1.2800 hc         1 CGH       0.024950
     25 H51A         1.7590     2.5750    -0.1910 hc         1 CGH       0.024950
     26 H50          0.1930     1.5210     1.1710 hc         1 CGH       0.041200
     27 H50A         1.3150     0.3530     1.8140 hc         1 CGH       0.041200
     28 OXT         -4.2150    -0.2320    -0.8740 o          1 CGH      -0.737000
@<TRIPOS>BOND
     1     1     2 1   
     2     1     3 1   
     3     1    28 1   
     4     3     4 1   
     5     3    12 1   
     6     3    13 1   
     7     4     5 1   
     8     4    14 1   
     9     5     6 1   
    10     5    11 1   
    11     5    15 1   
    12     6     7 1   
    13     6    16 1   
    14     6    17 1   
    15     7     8 1   
    16     7    18 1   
    17     7    19 1   
    18     8     9 1   
    19     8    20 1   
    20     8    21 1   
    21     9    10 1   
    22     9    22 1   
    23     9    23 1   
    24    10    11 1   
    25    10    24 1   
    26    10    25 1   
    27    11    26 1   
    28    11    27 1   
@<TRIPOS>SUBSTRUCTURE
     1 CGH         1 TEMP              0 ****  ****    0 ROOT
