@<TRIPOS>MOLECULE
CGH
   28    28     1     0     0
SMALL
abcg2


@<TRIPOS>ATOM
      1 C14         -3.2570     0.1360     0.2130 c          1 CGH       0.717000
      2 O32         -3.3220    -0.5780     1.2330 o          1 CGH      -0.737000
      3 C5          -1.8630     0.3630    -0.4020 c3         1 CGH       0.016800
      4 N21         -0.9020    -0.6400    -0.0060 n7         1 CGH      -0.862400
      5 C49          0.4950    -0.2640    -0.1920 c3         1 CGH       0.183500
      6 C48          1.3460    -1.5300    -0.0740 c3         1 CGH      -0.090400
      7 C47          2.8000    -1.4320    -0.5220 c3         1 CGH      -0.065400
      8 C46          3.6370    -0.3080     0.0850 c3         1 CGH      -0.066400
      9 C52          3.2360     1.0770    -0.4240 c3         1 CGH      -0.066400
     10 C51          2.0770     1.7440     0.3230 c3         1 CGH      -0.065400
     11 C50          0.9640     0.8130     0.8020 c3         1 CGH      -0.090400
     12 H5          -1.9520     0.3780    -1.4940 h1         1 CGH       0.010200
     13 H5A         -1.5670     1.3890    -0.1200 h1         1 CGH       0.010200
     14 HN21        -1.0730    -0.8750     0.9650 hn         1 CGH       0.431000
     15 H49          0.5800     0.1240    -1.2160 h1         1 CGH       0.044700
     16 H48          1.3120    -1.8620     0.9710 hc         1 CGH       0.041200
     17 H48A         0.8630    -2.3190    -0.6570 hc         1 CGH       0.041200
     18 H47          3.2790    -2.3910    -0.3040 hc         1 CGH       0.024950
     19 H47A         2.8340    -1.3240    -1.6120 hc         1 CGH       0.024950
     20 H46          3.5970    -0.3460     1.1790 hc         1 CGH       0.025950
     21 H46A         4.6820    -0.4880    -0.1820 hc         1 CGH       0.025950
     22 H52          4.0970     1.7490    -0.3850 hc         1 CGH       0.025950
     23 H52A         2.9880     0.9860    -1.4860 hc         1 CGH       0.025950
     24 H51          2.4700     2.2750     1.1940 hc         1 CGH       0.024950
     25 H51A         1.6460     2.5120    -0.3250 hc         1 CGH       0.024950
     26 H50          0.1150     1.4410     1.0870 hc         1 CGH       0.041200
     27 H50A         1.2760     0.3100     1.7240 hc         1 CGH       0.041200
     28 OXT         -4.2020     0.7260    -0.3460 o          1 CGH      -0.737000
@<TRIPOS>BOND
     1     1     2 1   
     2     1     3 1   
     3     1    28 1   
     4     3     4 1   
     5     3    12 1   
     6     3    13 1   
     7     4     5 1   
     8     4    14 1   
     9     5     6 1   
    10     5    11 1   
    11     5    15 1   
    12     6     7 1   
    13     6    16 1   
    14     6    17 1   
    15     7     8 1   
    16     7    18 1   
    17     7    19 1   
    18     8     9 1   
    19     8    20 1   
    20     8    21 1   
    21     9    10 1   
    22     9    22 1   
    23     9    23 1   
    24    10    11 1   
    25    10    24 1   
    26    10    25 1   
    27    11    26 1   
    28    11    27 1   
@<TRIPOS>SUBSTRUCTURE
     1 CGH         1 TEMP              0 ****  ****    0 ROOT
