@<TRIPOS>MOLECULE
CGI
   37    40     1     0     0
SMALL
bcc


@<TRIPOS>ATOM
      1 C4          29.4780    40.9900    -6.4230 ca         1 CGI       0.099100
      2 C14         35.9130    35.7140    -3.7920 ca         1 CGI      -0.386400
      3 C5          31.4870    40.1560    -5.5170 ca         1 CGI       0.118100
      4 C6          31.0390    38.8430    -5.5130 ca         1 CGI      -0.159500
      5 C11         37.2810    35.6020    -4.0730 ca         1 CGI       0.471800
      6 C7          31.8860    37.8350    -5.0760 ca         1 CGI      -0.113000
      7 C8          33.1720    38.1140    -4.6250 ca         1 CGI       0.130600
      8 C9          35.2820    36.8490    -4.3380 ca         1 CGI       0.761200
      9 C10         37.2930    37.4780    -5.2350 ca         1 CGI       0.701900
     10 C12         36.6870    33.8520    -2.8400 cc         1 CGI      -0.124100
     11 C13         35.5480    34.5840    -3.0010 cd         1 CGI      -0.159200
     12 N1          33.9560    37.0560    -4.1420 nu         1 CGI      -0.744300
     13 N2          35.9930    37.7130    -5.0540 nb         1 CGI      -0.809000
     14 C3          28.3930    41.0160    -5.5610 ca         1 CGI      -0.128000
     15 N3          38.0060    36.4650    -4.7900 nb         1 CGI      -0.748000
     16 CL1         25.3400    40.3900    -8.0470 cl         1 CGI      -0.105400
     17 C1          26.9380    40.6190    -7.4200 ca         1 CGI       0.023400
     18 C2          27.1120    40.8340    -6.0610 ca         1 CGI      -0.113500
     19 O1          30.7380    41.2170    -5.9360 os         1 CGI      -0.253200
     20 N4          37.7280    34.4670    -3.4870 na         1 CGI      -0.265100
     21 C15         33.6020    39.4410    -4.6150 ca         1 CGI      -0.113000
     22 C16         32.7700    40.4490    -5.0670 ca         1 CGI      -0.159500
     23 C17         29.2990    40.7730    -7.7810 ca         1 CGI      -0.128000
     24 C18         28.0200    40.5900    -8.2860 ca         1 CGI      -0.113500
     25 H1          30.0460    38.5820    -5.8540 ha         1 CGI       0.147000
     26 H2          31.5320    36.8110    -5.0870 ha         1 CGI       0.144000
     27 H3          37.8220    38.2170    -5.8270 h5         1 CGI       0.046100
     28 H4          36.8430    32.9280    -2.3060 h4         1 CGI       0.168000
     29 H5          34.5780    34.3390    -2.5980 ha         1 CGI       0.153000
     30 H6          33.4480    36.2950    -3.7180 hn         1 CGI       0.445800
     31 H7          28.5410    41.1870    -4.5020 ha         1 CGI       0.152500
     32 H8          26.2610    40.8580    -5.3940 ha         1 CGI       0.151000
     33 H9          38.6790    34.1350    -3.5150 hn         1 CGI       0.312700
     34 H10         34.5870    39.6950    -4.2530 ha         1 CGI       0.144000
     35 H11         33.1140    41.4750    -5.0570 ha         1 CGI       0.147000
     36 H12         30.1510    40.7560    -8.4480 ha         1 CGI       0.152500
     37 H13         27.8740    40.4260    -9.3450 ha         1 CGI       0.151000
@<TRIPOS>BOND
     1     1    14 ar  
     2     1    19 1   
     3     1    23 ar  
     4     2     5 ar  
     5     2     8 ar  
     6     2    11 1   
     7     3     4 ar  
     8     3    19 1   
     9     3    22 ar  
    10     4     6 ar  
    11     4    25 1   
    12     5    15 ar  
    13     5    20 1   
    14     6     7 ar  
    15     6    26 1   
    16     7    12 1   
    17     7    21 ar  
    18     8    12 1   
    19     8    13 ar  
    20     9    13 ar  
    21     9    15 ar  
    22     9    27 1   
    23    10    11 2   
    24    10    20 1   
    25    10    28 1   
    26    11    29 1   
    27    12    30 1   
    28    14    18 ar  
    29    14    31 1   
    30    16    17 1   
    31    17    18 ar  
    32    17    24 ar  
    33    18    32 1   
    34    20    33 1   
    35    21    22 ar  
    36    21    34 1   
    37    22    35 1   
    38    23    24 ar  
    39    23    36 1   
    40    24    37 1   
@<TRIPOS>SUBSTRUCTURE
     1 CGI         1 TEMP              0 ****  ****    0 ROOT
