@<TRIPOS>MOLECULE
CGI
   37    40     1     0     0
SMALL
No Charge or Current Charge


@<TRIPOS>ATOM
      1 C4          29.2490    40.9630    -6.0640 ca         1 CGI       0.099100
      2 C14         36.1170    35.7440    -4.0150 ca         1 CGI      -0.255800
      3 C5          31.2360    40.0830    -5.0010 ca         1 CGI       0.118100
      4 C6          30.8370    38.7350    -4.9310 ca         1 CGI      -0.141500
      5 C11         37.4600    35.5910    -4.2440 ca         1 CGI       0.143500
      6 C7          31.7960    37.7290    -4.7060 ca         1 CGI      -0.095000
      7 C8          33.1570    38.0550    -4.5490 ca         1 CGI       0.269000
      8 C9          35.4420    36.8680    -4.5070 ca         1 CGI       0.432900
      9 C10         37.4440    37.5630    -5.3990 ca         1 CGI       0.175900
     10 C12         36.7660    33.7570    -3.0120 cc         1 CGI      -0.174100
     11 C13         35.6910    34.5970    -3.2460 cd         1 CGI      -0.209200
     12 N1          34.0730    37.0210    -4.3150 nu         1 CGI      -0.937900
     13 N2          36.1190    37.7890    -5.2200 nb         1 CGI      -0.283000
     14 C3          28.0210    41.5480    -5.7100 ca         1 CGI      -0.110000
     15 N3          38.1570    36.5030    -4.9440 nb         1 CGI      -0.222000
     16 Cl1         25.6640    40.6390    -8.8810 cl         1 CGI      -0.197000
     17 C1          27.0450    40.7650    -7.7990 ca         1 CGI       0.115000
     18 C2          26.9170    41.4460    -6.5760 ca         1 CGI      -0.095500
     19 O1          30.3180    41.0880    -5.2050 os         1 CGI      -0.253200
     20 N4          37.8520    34.4020    -3.6450 na         1 CGI      -0.315400
     21 C15         33.5420    39.4120    -4.5920 ca         1 CGI      -0.095000
     22 C16         32.5850    40.4200    -4.8170 ca         1 CGI      -0.141500
     23 C17         29.3800    40.2910    -7.2970 ca         1 CGI      -0.110000
     24 C18         28.2740    40.1900    -8.1610 ca         1 CGI      -0.095500
     25 H1          29.7900    38.4650    -5.0460 ha         1 CGI       0.129000
     26 H2          31.4770    36.6910    -4.6580 ha         1 CGI       0.126000
     27 H3          37.9930    38.3090    -5.9720 h5         1 CGI       0.046100
     28 H4          36.8450    32.8120    -2.4780 h4         1 CGI       0.218000
     29 H5          34.6800    34.4090    -2.8880 ha         1 CGI       0.203000
     30 H6          33.6430    36.1550    -3.9950 hn         1 CGI       0.501000
     31 H7          27.9260    42.0770    -4.7650 ha         1 CGI       0.134500
     32 H8          25.9650    41.8940    -6.3020 ha         1 CGI       0.133000
     33 H9          38.8050    34.0520    -3.6670 hn         1 CGI       0.363000
     34 H10         34.5760    39.6980    -4.4340 ha         1 CGI       0.126000
     35 H11         32.8900    41.4630    -4.8470 ha         1 CGI       0.129000
     36 H12         30.3320    39.8540    -7.5870 ha         1 CGI       0.134500
     37 H13         28.3710    39.6700    -9.1120 ha         1 CGI       0.133000
@<TRIPOS>BOND
     1     1    14 ar  
     2     1    19 1   
     3     1    23 ar  
     4     2     5 ar  
     5     2     8 ar  
     6     2    11 1   
     7     3     4 ar  
     8     3    19 1   
     9     3    22 ar  
    10     4     6 ar  
    11     4    25 1   
    12     5    15 ar  
    13     5    20 1   
    14     6     7 ar  
    15     6    26 1   
    16     7    12 1   
    17     7    21 ar  
    18     8    12 1   
    19     8    13 ar  
    20     9    13 ar  
    21     9    15 ar  
    22     9    27 1   
    23    10    11 2   
    24    10    20 1   
    25    10    28 1   
    26    11    29 1   
    27    12    30 1   
    28    14    18 ar  
    29    14    31 1   
    30    16    17 1   
    31    17    18 ar  
    32    17    24 ar  
    33    18    32 1   
    34    20    33 1   
    35    21    22 ar  
    36    21    34 1   
    37    22    35 1   
    38    23    24 ar  
    39    23    36 1   
    40    24    37 1   
@<TRIPOS>SUBSTRUCTURE
     1 CGI         1 TEMP              0 ****  ****    0 ROOT
