@<TRIPOS>MOLECULE
CGJ
   26    28     1     0     0
SMALL
No Charge or Current Charge


@<TRIPOS>ATOM
      1 C4          -0.4850     1.6770    -1.0780 c3         1 CGJ       0.202900
      2 C5          -1.2140     0.4780    -0.4580 ca         1 CGJ      -0.126300
      3 C6          -2.6050     0.3580    -0.6600 ca         1 CGJ      -0.077000
      4 N1           2.6420     0.7530     0.1870 nc         1 CGJ      -0.334000
      5 C7          -3.3160    -0.7250    -0.1180 ca         1 CGJ      -0.108000
      6 C8          -2.6450    -1.6980     0.6360 ca         1 CGJ      -0.090000
      7 N2           0.8440    -0.4520     0.5720 na         1 CGJ      -0.277800
      8 C9          -1.2610    -1.5880     0.8460 ca         1 CGJ      -0.112000
      9 C10         -0.5310    -0.5150     0.2980 ca         1 CGJ       0.009800
     10 C1           1.6850    -1.1770    -0.2310 cd         1 CGJ       0.406800
     11 C2           1.4160     0.7860     0.6990 cd         1 CGJ       0.348800
     12 N            2.8220    -0.5050    -0.3790 nc         1 CGJ      -0.361000
     13 O           -0.0480     2.6060    -0.0530 os         1 CGJ      -0.440000
     14 C3           0.6760     2.0520     1.0830 c3         1 CGJ       0.132300
     15 H1           0.3690     1.3160    -1.6670 h1         1 CGJ       0.061700
     16 H2          -1.1510     2.1900    -1.7840 h1         1 CGJ       0.061700
     17 H3          -3.1410     1.1070    -1.2380 ha         1 CGJ       0.124000
     18 H4          -4.3890    -0.8070    -0.2800 ha         1 CGJ       0.123000
     19 H5          -3.1960    -2.5340     1.0620 ha         1 CGJ       0.123000
     20 H6          -0.7530    -2.3420     1.4430 ha         1 CGJ       0.129000
     21 H7           0.5810    -2.5170    -1.5050 hc         1 CGJ       0.061033
     22 H8           2.3040    -2.9050    -1.3680 hc         1 CGJ       0.061033
     23 H9           1.2080    -3.2660    -0.0240 hc         1 CGJ       0.061033
     24 H10         -0.0220     1.8050     1.8920 h1         1 CGJ       0.072700
     25 H11          1.3900     2.7850     1.4790 h1         1 CGJ       0.072700
     26 C            1.4310    -2.5410    -0.8140 c3         1 CGJ      -0.124400
@<TRIPOS>BOND
     1     1     2 1   
     2     1    13 1   
     3     1    15 1   
     4     1    16 1   
     5     2     3 ar  
     6     2     9 ar  
     7     3     5 ar  
     8     3    17 1   
     9     4    11 2   
    10     4    12 1   
    11     5     6 ar  
    12     5    18 1   
    13     6     8 ar  
    14     6    19 1   
    15     7     9 1   
    16     7    10 1   
    17     7    11 1   
    18     8     9 ar  
    19     8    20 1   
    20    10    12 2   
    21    10    26 1   
    22    11    14 1   
    23    13    14 1   
    24    14    24 1   
    25    14    25 1   
    26    21    26 1   
    27    22    26 1   
    28    23    26 1   
@<TRIPOS>SUBSTRUCTURE
     1 CGJ         1 TEMP              0 ****  ****    0 ROOT
