@<TRIPOS>MOLECULE
CGJ
   26    28     1     0     0
SMALL
bcc


@<TRIPOS>ATOM
      1 C4          -0.6200     1.7540    -1.0650 c3         1 CGJ       0.179700
      2 C5          -1.3360     0.5660    -0.4790 ca         1 CGJ      -0.126300
      3 C6          -2.7230     0.4760    -0.4950 ca         1 CGJ      -0.095000
      4 N1           2.7150     0.6130     0.4280 nc         1 CGJ      -0.334000
      5 C7          -3.3720    -0.6470    -0.0010 ca         1 CGJ      -0.126000
      6 C8          -2.6340    -1.6920     0.5360 ca         1 CGJ      -0.108000
      7 N2           0.7920    -0.3630     0.1380 na         1 CGJ      -0.277800
      8 C9          -1.2500    -1.6130     0.5890 ca         1 CGJ      -0.130000
      9 C10         -0.6130    -0.4940     0.0750 ca         1 CGJ       0.009800
     10 C1           1.7860    -1.2420    -0.1730 cd         1 CGJ       0.406800
     11 C2           1.4310     0.7850     0.5020 cd         1 CGJ       0.348800
     12 N            2.9370    -0.6580     0.0060 nc         1 CGJ      -0.361000
     13 O           -0.0370     2.6230    -0.1120 os         1 CGJ      -0.393600
     14 C3           0.6820     2.0000     0.9310 c3         1 CGJ       0.109100
     15 H1           0.1410     1.4020    -1.7740 h1         1 CGJ       0.061700
     16 H2          -1.3250     2.3600    -1.6330 h1         1 CGJ       0.061700
     17 H3          -3.2990     1.2910    -0.9150 ha         1 CGJ       0.142000
     18 H4          -4.4520    -0.7040    -0.0320 ha         1 CGJ       0.141000
     19 H5          -3.1320    -2.5660     0.9320 ha         1 CGJ       0.141000
     20 H6          -0.6800    -2.4120     1.0440 ha         1 CGJ       0.147000
     21 H7           0.8610    -2.6580    -1.4800 hc         1 CGJ       0.061033
     22 H8           2.5290    -3.0210    -1.0200 hc         1 CGJ       0.061033
     23 H9           1.2200    -3.2850     0.1270 hc         1 CGJ       0.061033
     24 H10          0.0090     1.7250     1.7520 h1         1 CGJ       0.072700
     25 H11          1.3940     2.7270     1.3220 h1         1 CGJ       0.072700
     26 C            1.5820    -2.6260    -0.6620 c3         1 CGJ      -0.124400
@<TRIPOS>BOND
     1     1     2 1   
     2     1    13 1   
     3     1    15 1   
     4     1    16 1   
     5     2     3 ar  
     6     2     9 ar  
     7     3     5 ar  
     8     3    17 1   
     9     4    11 2   
    10     4    12 1   
    11     5     6 ar  
    12     5    18 1   
    13     6     8 ar  
    14     6    19 1   
    15     7     9 1   
    16     7    10 1   
    17     7    11 1   
    18     8     9 ar  
    19     8    20 1   
    20    10    12 2   
    21    10    26 1   
    22    11    14 1   
    23    13    14 1   
    24    14    24 1   
    25    14    25 1   
    26    21    26 1   
    27    22    26 1   
    28    23    26 1   
@<TRIPOS>SUBSTRUCTURE
     1 CGJ         1 TEMP              0 ****  ****    0 ROOT
