@<TRIPOS>MOLECULE
CGK
   67    71     1     0     0
SMALL
bcc


@<TRIPOS>ATOM
      1 O            6.1850    -2.6350    -0.9670 oh         1 CGK      -0.557800
      2 CX           6.7180    -1.5240    -0.3750 c5         1 CGK       0.492700
      3 CY           8.2340    -1.5970    -0.4560 c3         1 CGK      -0.046400
      4 CT           8.7870    -1.6330    -1.8700 c3         1 CGK      -0.206400
      5 CI          10.3250    -1.6440    -1.9590 c          1 CGK       0.930600
      6 OI2         10.8000    -1.8580    -3.0930 o          1 CGK      -0.859800
      7 OI1         10.9710    -1.4270    -0.9150 o          1 CGK      -0.859800
      8 O1           6.2650    -1.4560     0.9470 os         1 CGK      -0.416600
      9 C2           6.2190    -0.1570     1.4800 c5         1 CGK       0.121100
     10 C1           5.6480     0.7930     0.4190 c5         1 CGK       0.217200
     11 SX           6.0780     0.0480    -1.1710 ss         1 CGK      -0.477200
     12 C3           5.1320    -0.1180     2.5430 c5         1 CGK       0.112100
     13 O2           5.1840    -1.2320     3.3810 oh         1 CGK      -0.570800
     14 C4           3.8760    -0.0090     1.6700 c5         1 CGK       0.095100
     15 O3           4.2630     0.8910     0.6440 os         1 CGK      -0.342600
     16 C5           2.6790     0.5410     2.4030 c3         1 CGK       0.213400
     17 O4           1.5770     0.5970     1.5240 os         1 CGK      -0.539200
     18 P1           0.0730     0.6320     2.1970 p5         1 CGK       1.460800
     19 O5          -0.2010    -0.6820     2.8580 o          1 CGK      -0.854500
     20 O6          -0.1190     1.9130     2.9440 o          1 CGK      -0.854500
     21 O7          -0.7190     0.6620     0.7630 os         1 CGK      -0.683800
     22 P2          -1.7980     1.8080     0.3030 p5         1 CGK       1.469800
     23 O9          -2.9900     1.8030     1.2140 o          1 CGK      -0.855000
     24 O8          -1.1140     3.0940    -0.0310 o          1 CGK      -0.855000
     25 O10         -2.1740     1.0080    -1.0870 os         1 CGK      -0.529200
     26 CA1         -3.1680     1.5760    -1.9050 c3         1 CGK       0.194400
     27 CA2         -3.8980     0.4620    -2.6330 c5         1 CGK       0.133100
     28 OA3         -4.4240    -0.4940    -1.7060 os         1 CGK      -0.360600
     29 CA5         -5.8190    -0.4310    -1.6650 c5         1 CGK       0.272800
     30 CA4         -6.1980     0.8790    -2.3560 c5         1 CGK       0.042100
     31 OA2         -7.4980     0.7980    -2.8580 oh         1 CGK      -0.584800
     32 CA3         -5.0970     0.9810    -3.4150 c5         1 CGK       0.074100
     33 OA1         -5.3500     0.1150    -4.4900 oh         1 CGK      -0.589800
     34 N9A         -6.2570    -0.5180    -0.2930 na         1 CGK      -0.263000
     35 C4A         -7.3360    -1.2180     0.1620 ca         1 CGK       0.431800
     36 C5M         -7.3730    -0.9800     1.5270 ca         1 CGK      -0.208200
     37 N7A         -6.3400    -0.1610     1.9050 nc         1 CGK      -0.567100
     38 C8A         -5.7000     0.0940     0.8000 cd         1 CGK       0.471700
     39 N3A         -8.1800    -1.9820    -0.5290 nb         1 CGK      -0.734000
     40 C2A         -9.1040    -2.5180     0.2480 ca         1 CGK       0.666900
     41 N1A         -9.2660    -2.3750     1.5610 nb         1 CGK      -0.856000
     42 C6A         -8.4090    -1.6060     2.2420 ca         1 CGK       0.758200
     43 N6A         -8.5740    -1.4510     3.5580 nv         1 CGK      -0.968500
     44 H1           5.2220    -2.5690    -0.9790 ho         1 CGK       0.427000
     45 H2           8.6500    -0.7440     0.0820 hc         1 CGK       0.056700
     46 H3           8.5480    -2.4930     0.0900 hc         1 CGK       0.056700
     47 H4           8.4020    -2.5010    -2.4110 hc         1 CGK       0.035200
     48 H5           8.4330    -0.7590    -2.4300 hc         1 CGK       0.035200
     49 H7           7.2010     0.1690     1.8360 h1         1 CGK       0.063700
     50 H8           6.0840     1.7910     0.4710 h2         1 CGK       0.082700
     51 H9           5.2500     0.8200     3.1040 h1         1 CGK       0.032700
     52 H10          4.6930    -1.0360     4.1840 ho         1 CGK       0.401000
     53 H11          3.6260    -0.9960     1.2550 h1         1 CGK       0.081700
     54 H12          2.4780    -0.1120     3.2610 h1         1 CGK       0.010700
     55 H13          2.9180     1.5360     2.7980 h1         1 CGK       0.010700
     56 H16         -3.8790     2.1750    -1.3220 h1         1 CGK       0.009200
     57 H17         -2.7260     2.2440    -2.6520 h1         1 CGK       0.009200
     58 H18         -3.1960    -0.0580    -3.2920 h1         1 CGK       0.098700
     59 H19         -6.2790    -1.2780    -2.1870 h2         1 CGK       0.091700
     60 H20         -6.0900     1.7070    -1.6440 h1         1 CGK       0.072700
     61 H21         -7.8140     1.6890    -3.0420 ho         1 CGK       0.397000
     62 H22         -4.9480     2.0160    -3.7530 h1         1 CGK       0.048700
     63 H23         -6.2710     0.2310    -4.7540 ho         1 CGK       0.400000
     64 H24         -4.8020     0.6970     0.7350 h5         1 CGK       0.163800
     65 H25         -9.8290    -3.1580    -0.2430 h5         1 CGK       0.019100
     66 H26         -9.2750    -1.9830     4.0430 hn         1 CGK       0.439800
     67 H27         -7.8910    -0.9590     4.1080 hn         1 CGK       0.439800
@<TRIPOS>BOND
     1     1     2 1   
     2     1    44 1   
     3     2     3 1   
     4     2     8 1   
     5     2    11 1   
     6     3     4 1   
     7     3    45 1   
     8     3    46 1   
     9     4     5 1   
    10     4    47 1   
    11     4    48 1   
    12     5     6 1   
    13     5     7 1   
    14     8     9 1   
    15     9    10 1   
    16     9    12 1   
    17     9    49 1   
    18    10    11 1   
    19    10    15 1   
    20    10    50 1   
    21    12    13 1   
    22    12    14 1   
    23    12    51 1   
    24    13    52 1   
    25    14    15 1   
    26    14    16 1   
    27    14    53 1   
    28    16    17 1   
    29    16    54 1   
    30    16    55 1   
    31    17    18 1   
    32    18    19 1   
    33    18    20 1   
    34    18    21 1   
    35    21    22 1   
    36    22    23 1   
    37    22    24 1   
    38    22    25 1   
    39    25    26 1   
    40    26    27 1   
    41    26    56 1   
    42    26    57 1   
    43    27    28 1   
    44    27    32 1   
    45    27    58 1   
    46    28    29 1   
    47    29    30 1   
    48    29    34 1   
    49    29    59 1   
    50    30    31 1   
    51    30    32 1   
    52    30    60 1   
    53    31    61 1   
    54    32    33 1   
    55    32    62 1   
    56    33    63 1   
    57    34    35 1   
    58    34    38 1   
    59    35    36 ar  
    60    35    39 ar  
    61    36    37 1   
    62    36    42 ar  
    63    37    38 2   
    64    38    64 1   
    65    39    40 ar  
    66    40    41 ar  
    67    40    65 1   
    68    41    42 ar  
    69    42    43 1   
    70    43    66 1   
    71    43    67 1   
@<TRIPOS>SUBSTRUCTURE
     1 CGK         1 TEMP              0 ****  ****    0 ROOT
