@<TRIPOS>MOLECULE
CGK
   67    71     1     0     0
SMALL
No Charge or Current Charge


@<TRIPOS>ATOM
      1 O            6.3660    -2.4610    -0.9760 oh         1 CGK      -0.620000
      2 CX           6.8100    -1.3340    -0.2770 c5         1 CGK       0.587000
      3 CY           8.3720    -1.3010    -0.2430 c3         1 CGK      -0.046400
      4 CT           9.0970    -1.3780    -1.6210 c3         1 CGK      -0.206400
      5 CI          10.6160    -1.2600    -1.4230 c          1 CGK       0.720000
      6 OI2         11.2530    -2.2830    -1.2210 o          1 CGK      -0.754500
      7 OI1         11.1120    -0.1440    -1.4200 o          1 CGK      -0.754500
      8 O1           6.2470    -1.3820     1.0380 os         1 CGK      -0.463000
      9 C2           6.3710    -0.0800     1.6790 c5         1 CGK       0.144300
     10 C1           6.0450     1.0030     0.5950 c5         1 CGK       0.288300
     11 SX           6.0860     0.1550    -1.0550 ss         1 CGK      -0.573000
     12 C3           5.1830     0.0720     2.6750 c5         1 CGK       0.135300
     13 O2           4.9440    -1.1290     3.4210 oh         1 CGK      -0.693000
     14 C4           4.0470     0.4510     1.6800 c5         1 CGK       0.118300
     15 O3           4.6960     1.4510     0.8570 os         1 CGK      -0.389000
     16 C5           2.7740     1.0340     2.3640 c3         1 CGK       0.236600
     17 O4           1.7480     1.3390     1.4010 os         1 CGK      -0.562400
     18 P1           1.0030     0.1770     0.5640 p5         1 CGK       1.460800
     19 O5           1.7260    -0.0670    -0.7210 o          1 CGK      -0.854500
     20 O6           0.8590    -1.0440     1.4140 o          1 CGK      -0.854500
     21 O7          -0.3510     0.9640     0.3830 os         1 CGK      -0.683800
     22 P2          -1.5370     0.0730    -0.1480 p5         1 CGK       1.469800
     23 O9          -1.1650    -0.9950    -1.1220 o          1 CGK      -0.855000
     24 O8          -2.3740    -0.4250     0.9840 o          1 CGK      -0.855000
     25 O10         -2.2940     1.2740    -0.9160 os         1 CGK      -0.552400
     26 CA1         -3.6960     1.2240    -1.2250 c3         1 CGK       0.217600
     27 CA2         -4.0040     0.0860    -2.2540 c5         1 CGK       0.156300
     28 OA3         -4.6250    -1.0490    -1.5960 os         1 CGK      -0.407000
     29 CA5         -6.0620    -0.8640    -1.5730 c5         1 CGK       0.325300
     30 CA4         -6.3640     0.3760    -2.4980 c5         1 CGK       0.065300
     31 OA2         -7.5120     0.2140    -3.3590 oh         1 CGK      -0.707000
     32 CA3         -5.0590     0.4840    -3.3330 c5         1 CGK       0.097300
     33 OA1         -5.1150    -0.4220    -4.4410 oh         1 CGK      -0.712000
     34 N9A         -6.5340    -0.7540    -0.1940 na         1 CGK      -0.292300
     35 C4A         -7.7960    -0.4460     0.2520 ca         1 CGK       0.103500
     36 C5M         -7.7740    -0.5220     1.6220 ca         1 CGK      -0.077600
     37 N7A         -6.5270    -0.8860     2.1150 nc         1 CGK      -0.567100
     38 C8A         -5.8040    -1.0230     0.9820 cd         1 CGK       0.471700
     39 N3A         -8.9170    -0.1240    -0.4270 nb         1 CGK      -0.208000
     40 C2A        -10.0170     0.1200     0.3250 ca         1 CGK       0.140900
     41 N1A        -10.1010     0.0730     1.6760 nb         1 CGK      -0.330000
     42 C6A         -8.9700    -0.2480     2.3230 ca         1 CGK       0.429900
     43 N6A         -9.0630    -0.3030     3.6800 nv         1 CGK      -1.078900
     44 H1           5.3950    -2.3560    -0.9680 ho         1 CGK       0.466000
     45 H2           8.7060    -0.3850     0.2580 hc         1 CGK       0.056700
     46 H3           8.7260    -2.1300     0.3810 hc         1 CGK       0.056700
     47 H4           8.8480    -2.3570    -2.0480 hc         1 CGK       0.035200
     48 H5           8.7270    -0.5310    -2.2120 hc         1 CGK       0.035200
     49 H7           7.3600     0.0400     2.1410 h1         1 CGK       0.063700
     50 H8           6.7500     1.8450     0.6240 h2         1 CGK       0.082700
     51 H9           5.3700     0.9080     3.3650 h1         1 CGK       0.032700
     52 H10          5.2670    -1.8560     2.8340 ho         1 CGK       0.500000
     53 H11          3.7740    -0.4110     1.0560 h1         1 CGK       0.081700
     54 H12          2.4010     0.3120     3.1030 h1         1 CGK       0.010700
     55 H13          3.0530     1.9440     2.9120 h1         1 CGK       0.010700
     56 H16         -4.2910     1.0840    -0.3140 h1         1 CGK       0.009200
     57 H17         -3.9960     2.1860    -1.6600 h1         1 CGK       0.009200
     58 H18         -3.0700    -0.2300    -2.7340 h1         1 CGK       0.098700
     59 H19         -6.5380    -1.7640    -1.9830 h2         1 CGK       0.091700
     60 H20         -6.4800     1.2780    -1.8790 h1         1 CGK       0.072700
     61 H21         -8.3160     0.2670    -2.7880 ho         1 CGK       0.496000
     62 H22         -4.8990     1.5100    -3.6930 h1         1 CGK       0.048700
     63 H23         -6.0890    -0.5060    -4.6050 ho         1 CGK       0.499000
     64 H24         -4.7610    -1.3230     0.9370 h5         1 CGK       0.163800
     65 H25        -10.9280     0.3790    -0.2130 h5         1 CGK       0.019100
     66 H26         -9.9890    -0.3770     4.0930 hn         1 CGK       0.495000
     67 H27         -8.3000    -0.7550     4.1800 hn         1 CGK       0.495000
@<TRIPOS>BOND
     1     1     2 1   
     2     1    44 1   
     3     2     3 1   
     4     2     8 1   
     5     2    11 1   
     6     3     4 1   
     7     3    45 1   
     8     3    46 1   
     9     4     5 1   
    10     4    47 1   
    11     4    48 1   
    12     5     6 1   
    13     5     7 1   
    14     8     9 1   
    15     9    10 1   
    16     9    12 1   
    17     9    49 1   
    18    10    11 1   
    19    10    15 1   
    20    10    50 1   
    21    12    13 1   
    22    12    14 1   
    23    12    51 1   
    24    13    52 1   
    25    14    15 1   
    26    14    16 1   
    27    14    53 1   
    28    16    17 1   
    29    16    54 1   
    30    16    55 1   
    31    17    18 1   
    32    18    19 1   
    33    18    20 1   
    34    18    21 1   
    35    21    22 1   
    36    22    23 1   
    37    22    24 1   
    38    22    25 1   
    39    25    26 1   
    40    26    27 1   
    41    26    56 1   
    42    26    57 1   
    43    27    28 1   
    44    27    32 1   
    45    27    58 1   
    46    28    29 1   
    47    29    30 1   
    48    29    34 1   
    49    29    59 1   
    50    30    31 1   
    51    30    32 1   
    52    30    60 1   
    53    31    61 1   
    54    32    33 1   
    55    32    62 1   
    56    33    63 1   
    57    34    35 1   
    58    34    38 1   
    59    35    36 ar  
    60    35    39 ar  
    61    36    37 1   
    62    36    42 ar  
    63    37    38 2   
    64    38    64 1   
    65    39    40 ar  
    66    40    41 ar  
    67    40    65 1   
    68    41    42 ar  
    69    42    43 1   
    70    43    66 1   
    71    43    67 1   
@<TRIPOS>SUBSTRUCTURE
     1 CGK         1 TEMP              0 ****  ****    0 ROOT
