@<TRIPOS>MOLECULE
CGN
   15    15     1     0     0
SMALL
No Charge or Current Charge


@<TRIPOS>ATOM
      1 CB           1.5480    -0.3230    -0.0450 c5         1 CGN      -0.079400
      2 CG           1.2130    -0.0900     1.4500 c5         1 CGN      -0.173400
      3 CD          -0.3090    -0.0260     1.4450 c          1 CGN       0.565000
      4 N           -0.6440     0.5000     0.2260 ns         1 CGN      -0.502900
      5 OE1         -1.1130    -0.5620     2.1890 o          1 CGN      -0.540000
      6 C            0.0700     0.0820    -2.1160 c          1 CGN       0.562900
      7 CA           0.4950     0.6200    -0.7130 c5         1 CGN      -0.016300
      8 O           -1.0760    -0.1750    -2.4770 o          1 CGN      -0.489100
      9 HB1          1.3880    -1.3730    -0.3200 hc         1 CGN       0.060700
     10 HB2          2.5810    -0.0630    -0.3040 hc         1 CGN       0.060700
     11 HG1          1.5900    -0.8490     2.1430 hc         1 CGN       0.078700
     12 HG2          1.5940     0.8990     1.7310 hc         1 CGN       0.078700
     13 HN          -1.6240     0.5050    -0.0380 hn         1 CGN       0.338500
     14 H            0.9200    -0.0620    -2.8190 h4         1 CGN      -0.005800
     15 HA           0.8590     1.6510    -0.8070 h1         1 CGN       0.063700
@<TRIPOS>BOND
     1     1     2 1   
     2     1     7 1   
     3     1     9 1   
     4     1    10 1   
     5     2     3 1   
     6     2    11 1   
     7     2    12 1   
     8     3     4 1   
     9     3     5 2   
    10     4     7 1   
    11     4    13 1   
    12     6     7 1   
    13     6     8 2   
    14     6    14 1   
    15     7    15 1   
@<TRIPOS>SUBSTRUCTURE
     1 CGN         1 TEMP              0 ****  ****    0 ROOT
