@<TRIPOS>MOLECULE
CGN
   15    15     1     0     0
SMALL
bcc


@<TRIPOS>ATOM
      1 CB           1.5450    -0.2610    -0.0630 c5         1 CGN      -0.079400
      2 CG           1.1810    -0.2000     1.4170 c5         1 CGN      -0.173400
      3 CD          -0.3210     0.0010     1.4270 c          1 CGN       0.707500
      4 N           -0.6840     0.3750     0.1830 ns         1 CGN      -0.569900
      5 OE1         -1.0670    -0.1260     2.3810 o          1 CGN      -0.615500
      6 C            0.1240     0.0230    -2.1140 c          1 CGN       0.562900
      7 CA           0.4090     0.5390    -0.7350 c5         1 CGN      -0.016300
      8 O           -0.9140    -0.4790    -2.4580 o          1 CGN      -0.489100
      9 HB1          1.5280    -1.2980    -0.4060 hc         1 CGN       0.060700
     10 HB2          2.5230     0.1530    -0.2930 hc         1 CGN       0.060700
     11 HG1          1.4710    -1.0870     1.9770 hc         1 CGN       0.078700
     12 HG2          1.6390     0.6640     1.9070 hc         1 CGN       0.078700
     13 HN          -1.6180     0.6930    -0.0260 hn         1 CGN       0.338500
     14 H            0.9710     0.1450    -2.8110 h4         1 CGN      -0.005800
     15 HA           0.7050     1.5920    -0.8400 h1         1 CGN       0.063700
@<TRIPOS>BOND
     1     1     2 1   
     2     1     7 1   
     3     1     9 1   
     4     1    10 1   
     5     2     3 1   
     6     2    11 1   
     7     2    12 1   
     8     3     4 1   
     9     3     5 2   
    10     4     7 1   
    11     4    13 1   
    12     6     7 1   
    13     6     8 2   
    14     6    14 1   
    15     7    15 1   
@<TRIPOS>SUBSTRUCTURE
     1 CGN         1 TEMP              0 ****  ****    0 ROOT
