@<TRIPOS>MOLECULE
CGQ
   48    49     1     0     0
SMALL
bcc


@<TRIPOS>ATOM
      1 C1           7.0990    -0.0310     0.0140 ca         1 CGQ      -0.248400
      2 C2           5.8460    -0.6340     0.0550 ca         1 CGQ      -0.052000
      3 C3           4.6970     0.1330    -0.1000 ca         1 CGQ      -0.159900
      4 C4           4.8130     1.5110    -0.2910 ca         1 CGQ      -0.025000
      5 C5           6.0610     2.1060    -0.3330 ca         1 CGQ      -0.107000
      6 C6           7.2100     1.3410    -0.1880 ca         1 CGQ      -0.039500
      7 C7           3.4040    -0.5440    -0.0640 ce         1 CGQ       0.478300
      8 N8           2.3220     0.1200    -0.1080 n2         1 CGQ      -0.532100
      9 C9           8.3090    -0.8500     0.2000 ce         1 CGQ       0.514900
     10 N10          8.2980    -1.8050     1.0950 nv         1 CGQ      -0.457350
     11 N11          9.3680    -0.5990    -0.5290 nv         1 CGQ      -0.441450
     12 N12          1.1650    -0.5640    -0.0830 nu         1 CGQ      -0.196500
     13 C13          0.0190     0.1240    -0.0740 cz         1 CGQ       0.566300
     14 N15          0.0140     1.4340    -0.0610 nv         1 CGQ      -0.434200
     15 N19         -1.1220    -0.5730    -0.0790 nu         1 CGQ      -0.180600
     16 N20         -2.2820     0.1050    -0.0240 n2         1 CGQ      -0.532100
     17 C21         -3.3640    -0.5590    -0.0570 ce         1 CGQ       0.478300
     18 C22         -4.6540     0.1200     0.0200 ca         1 CGQ      -0.159900
     19 C23         -4.7600     1.4980     0.2220 ca         1 CGQ      -0.025000
     20 C24         -6.0030     2.0960     0.3140 ca         1 CGQ      -0.107000
     21 C25         -7.1580     1.3340     0.2090 ca         1 CGQ      -0.039500
     22 C26         -7.0590    -0.0370    -0.0050 ca         1 CGQ      -0.248400
     23 C27         -5.8100    -0.6430    -0.0990 ca         1 CGQ      -0.052000
     24 C28         -8.2800    -0.8500    -0.1430 ce         1 CGQ       0.514900
     25 N29         -9.2990    -0.6070     0.6420 nv         1 CGQ      -0.457350
     26 N30         -8.3160    -1.7920    -1.0510 nv         1 CGQ      -0.441450
     27 H21          5.7560    -1.7060     0.1860 ha         1 CGQ       0.148500
     28 H41          3.9250     2.1170    -0.4120 ha         1 CGQ       0.163500
     29 H51          6.1450     3.1740    -0.4770 ha         1 CGQ       0.183000
     30 H61          8.1790     1.8220    -0.2070 ha         1 CGQ       0.167500
     31 H71          3.4150    -1.6330     0.0020 h4         1 CGQ       0.017300
     32 H101         9.0840    -2.4230     1.2320 hn         1 CGQ       0.336075
     33 H102         7.5250    -1.9060     1.7330 hn         1 CGQ       0.336075
     34 H111         9.3230     0.0450    -1.3020 hn         1 CGQ       0.336075
     35 H112        10.2380    -1.0950    -0.3990 hn         1 CGQ       0.336075
     36 H121         1.1520    -1.5790    -0.0580 hn         1 CGQ       0.318700
     37 H151        -0.8580     1.9380    -0.0640 hn         1 CGQ       0.348700
     38 H152         0.8830     1.9440    -0.0420 hn         1 CGQ       0.348700
     39 H191        -1.1030    -1.5870    -0.1140 hn         1 CGQ       0.318700
     40 H211        -3.3770    -1.6470    -0.1390 h4         1 CGQ       0.017300
     41 H231        -3.8660     2.1010     0.3150 ha         1 CGQ       0.163500
     42 H241        -6.0790     3.1630     0.4650 ha         1 CGQ       0.183000
     43 H251        -8.1250     1.8170     0.2700 ha         1 CGQ       0.167500
     44 H271        -5.7280    -1.7150    -0.2390 ha         1 CGQ       0.148500
     45 H291       -10.1770    -1.0950     0.5480 hn         1 CGQ       0.336075
     46 H292        -9.2140     0.0300     1.4170 hn         1 CGQ       0.336075
     47 H301        -7.5770    -1.8840    -1.7300 hn         1 CGQ       0.336075
     48 H302        -9.1130    -2.4020    -1.1600 hn         1 CGQ       0.336075
@<TRIPOS>BOND
     1     1     2 ar  
     2     1     6 ar  
     3     1     9 1   
     4     2     3 ar  
     5     2    27 1   
     6     3     4 ar  
     7     3     7 1   
     8     4     5 ar  
     9     4    28 1   
    10     5     6 ar  
    11     5    29 1   
    12     6    30 1   
    13     7     8 2   
    14     7    31 1   
    15     8    12 1   
    16     9    10 2   
    17     9    11 1   
    18    10    32 1   
    19    10    33 1   
    20    11    34 1   
    21    11    35 1   
    22    12    13 2   
    23    12    36 1   
    24    13    14 1   
    25    13    15 1   
    26    14    37 1   
    27    14    38 1   
    28    15    16 1   
    29    15    39 1   
    30    16    17 2   
    31    17    18 1   
    32    17    40 1   
    33    18    19 ar  
    34    18    23 ar  
    35    19    20 ar  
    36    19    41 1   
    37    20    21 ar  
    38    20    42 1   
    39    21    22 ar  
    40    21    43 1   
    41    22    23 ar  
    42    22    24 1   
    43    23    44 1   
    44    24    25 2   
    45    24    26 1   
    46    25    45 1   
    47    25    46 1   
    48    26    47 1   
    49    26    48 1   
@<TRIPOS>SUBSTRUCTURE
     1 CGQ         1 TEMP              0 ****  ****    0 ROOT
