@<TRIPOS>MOLECULE
CGQ
   48    49     1     0     0
SMALL
No Charge or Current Charge


@<TRIPOS>ATOM
      1 C1           7.3340    -0.0790     0.0320 ca         1 CGQ      -0.248400
      2 C2           6.0450    -0.6600     0.0320 ca         1 CGQ      -0.034000
      3 C3           4.8870     0.1450     0.0230 ca         1 CGQ      -0.159900
      4 C4           5.0240     1.5500     0.0160 ca         1 CGQ      -0.007000
      5 C5           6.3010     2.1350     0.0170 ca         1 CGQ      -0.089000
      6 C6           7.4510     1.3290     0.0250 ca         1 CGQ      -0.021500
      7 C7           3.5420    -0.5090     0.0170 ce         1 CGQ       0.478300
      8 N8           2.4340     0.1870     0.0040 n2         1 CGQ      -0.532100
      9 C9           8.5510    -0.9360     0.0420 ce         1 CGQ       0.514900
     10 N10          8.5570    -2.0860     0.7830 nv         1 CGQ      -0.557950
     11 N11          9.6460    -0.5610    -0.6890 nv         1 CGQ      -0.542050
     12 N12          1.1880    -0.4360    -0.0030 nu         1 CGQ      -0.652100
     13 C13          0.0110     0.2360    -0.0160 cz         1 CGQ       0.971600
     14 N15          0.0350     1.5500    -0.0210 nv         1 CGQ      -0.534800
     15 N19         -1.1620    -0.4310    -0.0230 nu         1 CGQ      -0.230900
     16 N20         -2.4050     0.2040    -0.0350 n2         1 CGQ      -0.532100
     17 C21         -3.5040    -0.4970    -0.0420 ce         1 CGQ       0.478300
     18 C22         -4.8500     0.1520    -0.0530 ca         1 CGQ      -0.159900
     19 C23         -4.9920     1.5560    -0.0580 ca         1 CGQ      -0.007000
     20 C24         -6.2700     2.1380    -0.0640 ca         1 CGQ      -0.089000
     21 C25         -7.4170     1.3290    -0.0650 ca         1 CGQ      -0.021500
     22 C26         -7.2970    -0.0780    -0.0600 ca         1 CGQ      -0.248400
     23 C27         -6.0060    -0.6560    -0.0550 ca         1 CGQ      -0.034000
     24 C28         -8.5110    -0.9390    -0.0620 ce         1 CGQ       0.514900
     25 N29         -9.6060    -0.5590     0.6670 nv         1 CGQ      -0.557950
     26 N30         -8.5170    -2.0950    -0.7950 nv         1 CGQ      -0.542050
     27 H21          5.9380    -1.7440     0.0240 ha         1 CGQ       0.130500
     28 H41          4.1470     2.1940     0.0090 ha         1 CGQ       0.145500
     29 H51          6.3980     3.2180     0.0150 ha         1 CGQ       0.165000
     30 H61          8.4290     1.8080     0.0390 ha         1 CGQ       0.149500
     31 H71          3.5270    -1.6010     0.0220 h4         1 CGQ       0.017300
     32 H101         9.4430    -2.5410     0.9590 hn         1 CGQ       0.386375
     33 H102         7.8270    -2.2080     1.4720 hn         1 CGQ       0.386375
     34 H111         9.5170     0.1580    -1.3880 hn         1 CGQ       0.386375
     35 H112        10.3770    -1.2400    -0.8500 hn         1 CGQ       0.386375
     36 H121         1.1090    -1.4540     0.0020 hn         1 CGQ       0.369000
     37 H151        -0.8150     2.0840    -0.0310 hn         1 CGQ       0.399000
     38 H152         0.9140     2.0350    -0.0160 hn         1 CGQ       0.399000
     39 H191        -1.0810    -1.4440    -0.0180 hn         1 CGQ       0.369000
     40 H211        -3.4830    -1.5890    -0.0380 h4         1 CGQ       0.017300
     41 H231        -4.1170     2.2040    -0.0580 ha         1 CGQ       0.145500
     42 H241        -6.3710     3.2210    -0.0710 ha         1 CGQ       0.165000
     43 H251        -8.3970     1.8050    -0.0820 ha         1 CGQ       0.149500
     44 H271        -5.8960    -1.7400    -0.0380 ha         1 CGQ       0.130500
     45 H291       -10.3340    -1.2410     0.8320 hn         1 CGQ       0.386375
     46 H292        -9.4840     0.1670     1.3590 hn         1 CGQ       0.386375
     47 H301        -7.7880    -2.2140    -1.4840 hn         1 CGQ       0.386375
     48 H302        -9.4000    -2.5540    -0.9690 hn         1 CGQ       0.386375
@<TRIPOS>BOND
     1     1     2 ar  
     2     1     6 ar  
     3     1     9 1   
     4     2     3 ar  
     5     2    27 1   
     6     3     4 ar  
     7     3     7 1   
     8     4     5 ar  
     9     4    28 1   
    10     5     6 ar  
    11     5    29 1   
    12     6    30 1   
    13     7     8 2   
    14     7    31 1   
    15     8    12 1   
    16     9    10 2   
    17     9    11 1   
    18    10    32 1   
    19    10    33 1   
    20    11    34 1   
    21    11    35 1   
    22    12    13 2   
    23    12    36 1   
    24    13    14 1   
    25    13    15 1   
    26    14    37 1   
    27    14    38 1   
    28    15    16 1   
    29    15    39 1   
    30    16    17 2   
    31    17    18 1   
    32    17    40 1   
    33    18    19 ar  
    34    18    23 ar  
    35    19    20 ar  
    36    19    41 1   
    37    20    21 ar  
    38    20    42 1   
    39    21    22 ar  
    40    21    43 1   
    41    22    23 ar  
    42    22    24 1   
    43    23    44 1   
    44    24    25 2   
    45    24    26 1   
    46    25    45 1   
    47    25    46 1   
    48    26    47 1   
    49    26    48 1   
@<TRIPOS>SUBSTRUCTURE
     1 CGQ         1 TEMP              0 ****  ****    0 ROOT
