@<TRIPOS>MOLECULE
CGS
   50    51     1     0     0
SMALL
bcc


@<TRIPOS>ATOM
      1 N1           0.5090    -0.1840    -0.8620 n3         1 CGS      -0.767500
      2 CC           1.0710     0.9900    -1.5310 c3         1 CGS       0.275100
      3 CA          -0.9390    -0.3450    -0.7150 c3         1 CGS       0.165500
      4 S4           1.4640    -1.1500     0.0810 sy         1 CGS       1.325200
      5 C5           1.4000     0.7750    -2.9870 ca         1 CGS      -0.216600
      6 CD           0.8620     1.6080    -3.9590 ca         1 CGS      -0.086000
      7 CE           1.1850     1.4030    -5.2910 ca         1 CGS      -0.251300
      8 CZ           2.0420     0.3610    -5.6070 ca         1 CGS       0.403200
      9 N11          2.5730    -0.4410    -4.6910 nb         1 CGS      -0.664000
     10 CY           2.2590    -0.2320    -3.4190 ca         1 CGS       0.421200
     11 C17          0.9510    -0.8000     1.7280 ca         1 CGS      -0.358500
     12 CE2          0.3210    -1.7730     2.4960 ca         1 CGS       0.003000
     13 CD2         -0.1720    -1.4440     3.7420 ca         1 CGS      -0.212500
     14 C20         -0.0490    -0.1390     4.2290 ca         1 CGS       0.209100
     15 CD1          0.6100     0.8250     3.4620 ca         1 CGS      -0.212500
     16 CE1          1.1070     0.4900     2.2170 ca         1 CGS       0.003000
     17 O27         -0.5830     0.0950     5.4290 os         1 CGS      -0.309900
     18 COM         -0.5390     1.4110     5.9570 c3         1 CGS       0.121700
     19 O32          2.8350    -0.6970    -0.1060 o          1 CGS      -0.607300
     20 O33          1.1400    -2.5410    -0.1960 o          1 CGS      -0.607300
     21 C34         -1.5050     0.7010     0.2520 c          1 CGS       0.647100
     22 N35         -2.1750     0.1680     1.2850 ns         1 CGS      -0.446400
     23 CB          -1.6670    -0.3040    -2.0690 c3         1 CGS      -0.053700
     24 CG2         -1.2320    -1.4760    -2.9400 c3         1 CGS      -0.093100
     25 CG1         -3.1810    -0.3300    -1.8740 c3         1 CGS      -0.093100
     26 O47         -1.3960     1.9010     0.0680 o          1 CGS      -0.574100
     27 O48         -2.6390     0.9680     2.2810 oh         1 CGS      -0.385100
     28 HC1          0.3580     1.8060    -1.4400 h1         1 CGS       0.078200
     29 HC2          1.9640     1.3170    -0.9990 h1         1 CGS       0.078200
     30 HA          -1.1180    -1.3450    -0.3080 h1         1 CGS       0.069700
     31 HD           0.1930     2.4130    -3.6780 ha         1 CGS       0.137000
     32 HE           0.7780     2.0330    -6.0700 ha         1 CGS       0.141000
     33 HZ           2.3140     0.1680    -6.6390 h4         1 CGS       0.019100
     34 HY           2.7160    -0.9060    -2.7030 h4         1 CGS       0.031100
     35 HE2          0.1990    -2.7820     2.1260 ha         1 CGS       0.152500
     36 HD2         -0.6720    -2.1930     4.3420 ha         1 CGS       0.148500
     37 HD1          0.7320     1.8410     3.8120 ha         1 CGS       0.148500
     38 HE1          1.6010     1.2550     1.6310 ha         1 CGS       0.152500
     39 HOM1        -1.0620     1.3760     6.9080 h1         1 CGS       0.048700
     40 HOM2         0.4870     1.7440     6.1290 h1         1 CGS       0.048700
     41 HOM3        -1.0410     2.1250     5.3010 h1         1 CGS       0.048700
     42 H49         -2.1280    -0.8130     1.5190 hn         1 CGS       0.340500
     43 HB          -1.4080     0.6330    -2.5700 hc         1 CGS       0.067700
     44 HG21        -1.6630    -1.3850    -3.9370 hc         1 CGS       0.041200
     45 HG22        -0.1510    -1.5310    -3.0510 hc         1 CGS       0.041200
     46 HG23        -1.5730    -2.4210    -2.5150 hc         1 CGS       0.041200
     47 HG11        -3.4940    -1.2100    -1.3080 hc         1 CGS       0.041200
     48 HG12        -3.5560     0.5560    -1.3610 hc         1 CGS       0.041200
     49 HG13        -3.6770    -0.3720    -2.8440 hc         1 CGS       0.041200
     50 H50         -3.5720     1.1290     2.0840 ho         1 CGS       0.407000
@<TRIPOS>BOND
     1     1     2 1   
     2     1     3 1   
     3     1     4 1   
     4     2     5 1   
     5     2    28 1   
     6     2    29 1   
     7     3    21 1   
     8     3    23 1   
     9     3    30 1   
    10     4    11 1   
    11     4    19 2   
    12     4    20 2   
    13     5     6 ar  
    14     5    10 ar  
    15     6     7 ar  
    16     6    31 1   
    17     7     8 ar  
    18     7    32 1   
    19     8     9 ar  
    20     8    33 1   
    21     9    10 ar  
    22    10    34 1   
    23    11    12 ar  
    24    11    16 ar  
    25    12    13 ar  
    26    12    35 1   
    27    13    14 ar  
    28    13    36 1   
    29    14    15 ar  
    30    14    17 1   
    31    15    16 ar  
    32    15    37 1   
    33    16    38 1   
    34    17    18 1   
    35    18    39 1   
    36    18    40 1   
    37    18    41 1   
    38    21    22 1   
    39    21    26 2   
    40    22    27 1   
    41    22    42 1   
    42    23    24 1   
    43    23    25 1   
    44    23    43 1   
    45    24    44 1   
    46    24    45 1   
    47    24    46 1   
    48    25    47 1   
    49    25    48 1   
    50    25    49 1   
    51    27    50 1   
@<TRIPOS>SUBSTRUCTURE
     1 CGS         1 TEMP              0 ****  ****    0 ROOT
