@<TRIPOS>MOLECULE
CGS
   50    51     1     0     0
SMALL
No Charge or Current Charge


@<TRIPOS>ATOM
      1 N1           0.1210    -1.0080    -0.7180 n3         1 CGS      -0.767500
      2 CC           0.4970     0.4180    -0.6140 c3         1 CGS       0.275100
      3 CA          -1.2240    -1.3290    -1.3270 c3         1 CGS       0.165500
      4 S4           0.5290    -1.8960     0.6860 sy         1 CGS       1.183600
      5 C5           0.6430     1.1690    -1.9250 ca         1 CGS      -0.151300
      6 CD          -0.2260     2.2220    -2.2680 ca         1 CGS      -0.068000
      7 CE          -0.0180     2.8820    -3.4890 ca         1 CGS      -0.168000
      8 CZ           1.0470     2.4830    -4.3140 ca         1 CGS       0.337900
      9 N11          1.8970     1.4850    -3.9840 nb         1 CGS      -0.664000
     10 CY           1.6920     0.8460    -2.8070 ca         1 CGS       0.355900
     11 C17          0.6210    -0.6710     2.0080 ca         1 CGS      -0.358500
     12 CE2         -0.5490    -0.2640     2.6760 ca         1 CGS       0.021000
     13 CD2         -0.4720     0.6870     3.7070 ca         1 CGS      -0.194500
     14 C20          0.7640     1.2300     4.0870 ca         1 CGS       0.209100
     15 CD1          1.9390     0.8090     3.4310 ca         1 CGS      -0.194500
     16 CE1          1.8700    -0.1420     2.3990 ca         1 CGS       0.021000
     17 O27          0.7710     2.1600     5.1060 os         1 CGS      -0.333100
     18 COM          1.9850     2.7770     5.5720 c3         1 CGS       0.144900
     19 O32          1.8580    -2.4570     0.4310 o          1 CGS      -0.536500
     20 O33         -1.0740    -3.1130     1.1090 o          1 CGS      -0.536500
     21 C34         -2.4430    -0.6320    -0.6290 c          1 CGS       0.580100
     22 N35         -3.1320    -1.4350     0.2710 ns         1 CGS      -0.379400
     23 CB          -1.2910    -1.2190    -2.8890 c3         1 CGS      -0.053700
     24 CG2         -0.1720    -2.0440    -3.5750 c3         1 CGS      -0.093100
     25 CG1         -2.6690    -1.6480    -3.4560 c3         1 CGS      -0.093100
     26 O47         -2.7680     0.5320    -0.8370 o          1 CGS      -0.574100
     27 O48         -3.9180    -0.8320     1.3130 oh         1 CGS      -0.424100
     28 HC1         -0.2020     0.9440     0.0480 h1         1 CGS       0.078200
     29 HC2          1.4780     0.4680    -0.1280 h1         1 CGS       0.078200
     30 HA          -1.3990    -2.4010    -1.1790 h1         1 CGS       0.069700
     31 HD          -1.0420     2.5180    -1.6110 ha         1 CGS       0.119000
     32 HE          -0.6690     3.6960    -3.7980 ha         1 CGS       0.123000
     33 HZ           1.2290     2.9820    -5.2660 h4         1 CGS       0.019100
     34 HY           2.3940     0.0490    -2.5630 h4         1 CGS       0.031100
     35 HE2         -1.5170    -0.6790     2.4080 ha         1 CGS       0.134500
     36 HD2         -1.3770     1.0030     4.2170 ha         1 CGS       0.130500
     37 HD1          2.9110     1.2050     3.7060 ha         1 CGS       0.130500
     38 HE1          2.7890    -0.4580     1.9050 ha         1 CGS       0.134500
     39 HOM1         1.7650     3.4830     6.3820 h1         1 CGS       0.048700
     40 HOM2         2.6820     2.0240     5.9590 h1         1 CGS       0.048700
     41 HOM3         2.4770     3.3320     4.7630 h1         1 CGS       0.048700
     42 H49         -2.6940    -2.3240     0.5290 hn         1 CGS       0.340500
     43 HB          -1.1590    -0.1720    -3.1770 hc         1 CGS       0.067700
     44 HG21        -0.1950    -1.9000    -4.6610 hc         1 CGS       0.041200
     45 HG22         0.8220    -1.7490    -3.2210 hc         1 CGS       0.041200
     46 HG23        -0.2960    -3.1140    -3.3690 hc         1 CGS       0.041200
     47 HG11        -2.9090    -2.6790    -3.1680 hc         1 CGS       0.041200
     48 HG12        -3.4730    -0.9940    -3.1000 hc         1 CGS       0.041200
     49 HG13        -2.6690    -1.5940    -4.5520 hc         1 CGS       0.041200
     50 H50         -4.7450    -1.3700     1.3210 ho         1 CGS       0.446000
@<TRIPOS>BOND
     1     1     2 1   
     2     1     3 1   
     3     1     4 1   
     4     2     5 1   
     5     2    28 1   
     6     2    29 1   
     7     3    21 1   
     8     3    23 1   
     9     3    30 1   
    10     4    11 1   
    11     4    19 2   
    12     4    20 2   
    13     5     6 ar  
    14     5    10 ar  
    15     6     7 ar  
    16     6    31 1   
    17     7     8 ar  
    18     7    32 1   
    19     8     9 ar  
    20     8    33 1   
    21     9    10 ar  
    22    10    34 1   
    23    11    12 ar  
    24    11    16 ar  
    25    12    13 ar  
    26    12    35 1   
    27    13    14 ar  
    28    13    36 1   
    29    14    15 ar  
    30    14    17 1   
    31    15    16 ar  
    32    15    37 1   
    33    16    38 1   
    34    17    18 1   
    35    18    39 1   
    36    18    40 1   
    37    18    41 1   
    38    21    22 1   
    39    21    26 2   
    40    22    27 1   
    41    22    42 1   
    42    23    24 1   
    43    23    25 1   
    44    23    43 1   
    45    24    44 1   
    46    24    45 1   
    47    24    46 1   
    48    25    47 1   
    49    25    48 1   
    50    25    49 1   
    51    27    50 1   
@<TRIPOS>SUBSTRUCTURE
     1 CGS         1 TEMP              0 ****  ****    0 ROOT
