@<TRIPOS>MOLECULE
CGT
   46    47     1     0     0
SMALL
abcg2


@<TRIPOS>ATOM
      1 C1           1.6710    -0.2170    -0.4960 c6         1 CGT       0.084300
      2 S1           0.4610    -0.1950    -1.8700 ss         1 CGT      -0.384200
      3 C2           1.9010    -1.6360    -0.0030 c6         1 CGT       0.153300
      4 O2           0.6940    -2.1430     0.5130 oh         1 CGT      -0.704000
      5 C3           2.9920    -1.6320     1.0680 c6         1 CGT       0.098300
      6 O3           3.2750    -2.9440     1.5100 oh         1 CGT      -0.688000
      7 C4           4.2930    -1.0460     0.5310 c6         1 CGT       0.177300
      8 O4           5.2860    -1.0390     1.5300 oh         1 CGT      -0.726000
      9 C5           4.0680     0.3800     0.0380 c6         1 CGT      -0.063700
     10 C7           2.9670     0.3870    -1.0250 c6         1 CGT      -0.058400
     11 C6           5.3590     0.9750    -0.5070 c3         1 CGT       0.170600
     12 O6           5.1160     2.3030    -0.9150 oh         1 CGT      -0.651000
     13 CB          -1.9230    -1.5470    -1.4350 c3         1 CGT      -0.048400
     14 CG          -3.2500    -1.6450    -0.7410 ca         1 CGT      -0.060300
     15 CD1         -4.4180    -1.2280    -1.3700 ca         1 CGT      -0.088000
     16 CD2         -3.3290    -2.1550     0.5520 ca         1 CGT      -0.088000
     17 CE1         -5.6440    -1.3220    -0.7240 ca         1 CGT      -0.111500
     18 CE2         -4.5510    -2.2520     1.2020 ca         1 CGT      -0.111500
     19 CZ          -5.7140    -1.8350     0.5640 ca         1 CGT      -0.115000
     20 C13         -1.1090    -0.3430    -1.0520 c2         1 CGT       0.385200
     21 N17         -1.6020     0.5060    -0.2530 n2         1 CGT      -0.199700
     22 O18         -0.7970     1.5870    -0.0290 os         1 CGT      -0.425700
     23 S19         -1.5220     2.6650     1.0440 s6         1 CGT       1.497300
     24 O20         -2.7690     3.0630     0.3980 o          1 CGT      -0.694533
     25 O21         -0.4790     3.6840     1.0640 o          1 CGT      -0.694533
     26 O22         -1.6910     1.9190     2.2860 o          1 CGT      -0.694533
     27 H1           1.2840     0.4060     0.3120 h1         1 CGT       0.123700
     28 H2           2.2500    -2.2410    -0.8530 h1         1 CGT       0.041700
     29 HA           0.7040    -3.1020     0.4450 ho         1 CGT       0.496000
     30 H3           2.6550    -1.0060     1.9090 h1         1 CGT       0.069700
     31 HB           2.6450    -3.1860     2.1940 ho         1 CGT       0.453000
     32 H4           4.6170    -1.6590    -0.3280 h1         1 CGT       0.031700
     33 HC           5.3210    -1.9250     1.9090 ho         1 CGT       0.513000
     34 H5           3.7350     0.9850     0.8920 hc         1 CGT       0.086700
     35 H7C1         2.7800     1.4060    -1.3590 hc         1 CGT       0.065200
     36 H7C2         3.3080    -0.1800    -1.9000 hc         1 CGT       0.065200
     37 H6C1         5.7060     0.3530    -1.3450 h1         1 CGT       0.018700
     38 H6C2         6.1360     0.9380     0.2640 h1         1 CGT       0.018700
     39 H6           5.9480     2.6800    -1.2130 ho         1 CGT       0.434000
     40 HBC1        -2.0650    -1.5270    -2.5200 hc         1 CGT       0.049700
     41 HBC2        -1.3130    -2.4290    -1.2310 hc         1 CGT       0.049700
     42 HD1         -4.3700    -0.8300    -2.3770 ha         1 CGT       0.110500
     43 HD2         -2.4240    -2.4770     1.0530 ha         1 CGT       0.110500
     44 HE1         -6.5460    -0.9990    -1.2280 ha         1 CGT       0.102000
     45 HE2         -4.5990    -2.6560     2.2050 ha         1 CGT       0.102000
     46 HZ          -6.6690    -1.9150     1.0680 ha         1 CGT       0.098000
@<TRIPOS>BOND
     1     1     2 1   
     2     1     3 1   
     3     1    10 1   
     4     1    27 1   
     5     2    20 1   
     6     3     4 1   
     7     3     5 1   
     8     3    28 1   
     9     4    29 1   
    10     5     6 1   
    11     5     7 1   
    12     5    30 1   
    13     6    31 1   
    14     7     8 1   
    15     7     9 1   
    16     7    32 1   
    17     8    33 1   
    18     9    10 1   
    19     9    11 1   
    20     9    34 1   
    21    10    35 1   
    22    10    36 1   
    23    11    12 1   
    24    11    37 1   
    25    11    38 1   
    26    12    39 1   
    27    13    14 1   
    28    13    20 1   
    29    13    40 1   
    30    13    41 1   
    31    14    15 ar  
    32    14    16 ar  
    33    15    17 ar  
    34    15    42 1   
    35    16    18 ar  
    36    16    43 1   
    37    17    19 ar  
    38    17    44 1   
    39    18    19 ar  
    40    18    45 1   
    41    19    46 1   
    42    20    21 2   
    43    21    22 1   
    44    22    23 1   
    45    23    24 1   
    46    23    25 1   
    47    23    26 1   
@<TRIPOS>SUBSTRUCTURE
     1 CGT         1 TEMP              0 ****  ****    0 ROOT
