@<TRIPOS>MOLECULE
CGT
   46    47     1     0     0
SMALL
No Charge or Current Charge


@<TRIPOS>ATOM
      1 C1           1.6880    -0.4900    -0.5740 c6         1 CGT       0.084300
      2 S1           0.4540    -0.5910    -1.9640 ss         1 CGT      -0.384200
      3 C2           2.1170    -1.8900    -0.0380 c6         1 CGT       0.153300
      4 O2           0.9810    -2.6620     0.3950 oh         1 CGT      -0.704000
      5 C3           3.1140    -1.7220     1.1430 c6         1 CGT       0.098300
      6 O3           3.4890    -3.0090     1.6720 oh         1 CGT      -0.688000
      7 C4           4.3770    -0.9370     0.6830 c6         1 CGT       0.177300
      8 O4           5.2730    -0.8370     1.7950 oh         1 CGT      -0.726000
      9 C5           3.9920     0.4670     0.1280 c6         1 CGT      -0.063700
     10 C7           2.9360     0.3210    -1.0130 c6         1 CGT      -0.058400
     11 C6           5.2480     1.2560    -0.3510 c3         1 CGT       0.170600
     12 O6           4.9220     2.5800    -0.7900 oh         1 CGT      -0.651000
     13 CB          -2.0740    -1.6800    -1.4670 c3         1 CGT      -0.048400
     14 CG          -3.3920    -1.7000    -0.6940 ca         1 CGT      -0.060300
     15 CD1         -4.5450    -1.0960    -1.2350 ca         1 CGT      -0.088000
     16 CD2         -3.4640    -2.3220     0.5680 ca         1 CGT      -0.088000
     17 CE1         -5.7560    -1.1170    -0.5220 ca         1 CGT      -0.111500
     18 CE2         -4.6760    -2.3420     1.2800 ca         1 CGT      -0.111500
     19 CZ          -5.8220    -1.7400     0.7360 ca         1 CGT      -0.115000
     20 C13         -1.1360    -0.5390    -1.1070 c2         1 CGT       0.385200
     21 N17         -1.5190     0.4290    -0.3370 n2         1 CGT      -0.199700
     22 O18         -0.6200     1.5450    -0.2560 os         1 CGT      -0.425700
     23 S19         -1.1340     2.7840     0.7240 s6         1 CGT       1.497300
     24 O20         -2.4200     3.2080     0.1430 o          1 CGT      -0.694533
     25 O21         -0.0650     3.7890     0.6180 o          1 CGT      -0.694533
     26 O22         -1.2520     2.1720     2.0590 o          1 CGT      -0.694533
     27 H1           1.2150     0.0520     0.2570 h1         1 CGT       0.123700
     28 H2           2.6340    -2.4240    -0.8510 h1         1 CGT       0.041700
     29 HA           0.5670    -3.0310    -0.4170 ho         1 CGT       0.496000
     30 H3           2.6100    -1.1340     1.9260 h1         1 CGT       0.069700
     31 HB           2.6600    -3.5420     1.6380 ho         1 CGT       0.453000
     32 H4           4.8600    -1.5070    -0.1260 h1         1 CGT       0.031700
     33 HC           5.1550    -1.7000     2.2630 ho         1 CGT       0.513000
     34 H5           3.5510     1.0570     0.9440 hc         1 CGT       0.086700
     35 H7C1         2.6110     1.3150    -1.3490 hc         1 CGT       0.065200
     36 H7C2         3.3970    -0.1620    -1.8860 hc         1 CGT       0.065200
     37 H6C1         5.7250     0.6960    -1.1670 h1         1 CGT       0.018700
     38 H6C2         5.9700     1.3140     0.4740 h1         1 CGT       0.018700
     39 H6           5.7650     3.0090    -1.0560 ho         1 CGT       0.434000
     40 HBC1        -2.2830    -1.6370    -2.5420 hc         1 CGT       0.049700
     41 HBC2        -1.5550    -2.6330    -1.3140 hc         1 CGT       0.049700
     42 HD1         -4.5030    -0.6100    -2.2070 ha         1 CGT       0.110500
     43 HD2         -2.5810    -2.7890     0.9980 ha         1 CGT       0.110500
     44 HE1         -6.6430    -0.6490    -0.9440 ha         1 CGT       0.102000
     45 HE2         -4.7250    -2.8240     2.2540 ha         1 CGT       0.102000
     46 HZ          -6.7600    -1.7550     1.2870 ha         1 CGT       0.098000
@<TRIPOS>BOND
     1     1     2 1   
     2     1     3 1   
     3     1    10 1   
     4     1    27 1   
     5     2    20 1   
     6     3     4 1   
     7     3     5 1   
     8     3    28 1   
     9     4    29 1   
    10     5     6 1   
    11     5     7 1   
    12     5    30 1   
    13     6    31 1   
    14     7     8 1   
    15     7     9 1   
    16     7    32 1   
    17     8    33 1   
    18     9    10 1   
    19     9    11 1   
    20     9    34 1   
    21    10    35 1   
    22    10    36 1   
    23    11    12 1   
    24    11    37 1   
    25    11    38 1   
    26    12    39 1   
    27    13    14 1   
    28    13    20 1   
    29    13    40 1   
    30    13    41 1   
    31    14    15 ar  
    32    14    16 ar  
    33    15    17 ar  
    34    15    42 1   
    35    16    18 ar  
    36    16    43 1   
    37    17    19 ar  
    38    17    44 1   
    39    18    19 ar  
    40    18    45 1   
    41    19    46 1   
    42    20    21 2   
    43    21    22 1   
    44    22    23 1   
    45    23    24 1   
    46    23    25 1   
    47    23    26 1   
@<TRIPOS>SUBSTRUCTURE
     1 CGT         1 TEMP              0 ****  ****    0 ROOT
