@<TRIPOS>MOLECULE
CGU
   19    18     1     0     0
SMALL
No Charge or Current Charge


@<TRIPOS>ATOM
      1 N           83.6040    40.3920    35.1840 n8         1 CGU      -1.029200
      2 CA          84.3520    40.8740    36.4010 c3         1 CGU       0.030500
      3 C           85.9040    41.1690    36.2090 c          1 CGU       0.710000
      4 O           86.3230    42.2920    36.4610 o          1 CGU      -0.785500
      5 OXT         86.6150    40.2940    35.7280 o          1 CGU      -0.785500
      6 CB          84.1210    39.9000    37.5930 c3         1 CGU      -0.040400
      7 CG          82.7260    40.0090    38.2910 c3         1 CGU      -0.297700
      8 CD1         82.5740    39.0410    39.4600 c          1 CGU       0.742000
      9 CD2         81.5190    39.7940    37.3860 c          1 CGU       0.742000
     10 OE11        82.3390    39.5120    40.5630 o          1 CGU      -0.792750
     11 OE12        82.7580    37.8450    39.2860 o          1 CGU      -0.792750
     12 OE21        81.4980    38.8420    36.6210 o          1 CGU      -0.792750
     13 OE22        80.6430    40.6470    37.3920 o          1 CGU      -0.792750
     14 H           82.7620    39.8950    35.5190 hn         1 CGU       0.392500
     15 HN2         84.1540    39.6380    34.7560 hn         1 CGU       0.392500
     16 HA          83.8970    41.8320    36.6900 h1         1 CGU       0.037700
     17 HB2         84.2990    38.8690    37.2600 hc         1 CGU       0.024200
     18 HB3         84.8830    40.1050    38.3560 hc         1 CGU       0.024200
     19 HG          82.6280    41.0160    38.7170 hc         1 CGU       0.013700
@<TRIPOS>BOND
     1     1     2 1   
     2     1    14 1   
     3     1    15 1   
     4     2     3 1   
     5     2     6 1   
     6     2    16 1   
     7     3     4 1   
     8     3     5 1   
     9     6     7 1   
    10     6    17 1   
    11     6    18 1   
    12     7     8 1   
    13     7     9 1   
    14     7    19 1   
    15     8    10 1   
    16     8    11 1   
    17     9    12 1   
    18     9    13 1   
@<TRIPOS>SUBSTRUCTURE
     1 CGU         1 TEMP              0 ****  ****    0 ROOT
