@<TRIPOS>MOLECULE
CGU
   19    18     1     0     0
SMALL
abcg2


@<TRIPOS>ATOM
      1 N           83.6280    40.4410    35.1560 n8         1 CGU      -1.029200
      2 CA          84.2940    40.8440    36.3920 c3         1 CGU       0.030500
      3 C           85.8100    41.0480    36.1500 c          1 CGU       0.710000
      4 O           86.4030    41.7810    36.9660 o          1 CGU      -0.785500
      5 OXT         86.3250    40.4440    35.1840 o          1 CGU      -0.785500
      6 CB          84.0920    39.8680    37.5710 c3         1 CGU      -0.040400
      7 CG          82.7760    40.0510    38.3240 c3         1 CGU      -0.297700
      8 CD1         82.6200    39.1100    39.5450 c          1 CGU       0.742000
      9 CD2         81.5200    39.8530    37.4480 c          1 CGU       0.742000
     10 OE11        81.6460    39.3510    40.2920 o          1 CGU      -0.792750
     11 OE12        83.4460    38.1860    39.6880 o          1 CGU      -0.792750
     12 OE21        81.4400    38.7580    36.8390 o          1 CGU      -0.792750
     13 OE22        80.6730    40.7670    37.4180 o          1 CGU      -0.792750
     14 H           82.8710    39.8030    35.3670 hn         1 CGU       0.392500
     15 HN2         84.3100    39.9080    34.6290 hn         1 CGU       0.392500
     16 HA          83.8980    41.8190    36.7090 h1         1 CGU       0.037700
     17 HB2         84.1850    38.8430    37.2020 hc         1 CGU       0.024200
     18 HB3         84.9050    40.0100    38.2880 hc         1 CGU       0.024200
     19 HG          82.7570    41.0790    38.7060 hc         1 CGU       0.013700
@<TRIPOS>BOND
     1     1     2 1   
     2     1    14 1   
     3     1    15 1   
     4     2     3 1   
     5     2     6 1   
     6     2    16 1   
     7     3     4 1   
     8     3     5 1   
     9     6     7 1   
    10     6    17 1   
    11     6    18 1   
    12     7     8 1   
    13     7     9 1   
    14     7    19 1   
    15     8    10 1   
    16     8    11 1   
    17     9    12 1   
    18     9    13 1   
@<TRIPOS>SUBSTRUCTURE
     1 CGU         1 TEMP              0 ****  ****    0 ROOT
