@<TRIPOS>MOLECULE
CGW
   27    28     1     0     0
SMALL
bcc


@<TRIPOS>ATOM
      1 N           -2.1240    -1.0500     1.3400 n8         1 CGW      -0.893800
      2 CA          -2.2240     0.1650     0.5590 c3         1 CGW      -0.008500
      3 C           -3.6540     0.6410     0.1900 c          1 CGW       0.907600
      4 OXT         -3.7140     1.7310    -0.4160 o          1 CGW      -0.825800
      5 CB          -1.4290     0.0240    -0.7450 c3         1 CGW       0.108000
      6 O           -4.6050    -0.0920     0.5130 o          1 CGW      -0.825800
      7 CAF          3.1580     1.0170     0.5820 c5         1 CGW       0.120900
      8 CAG          0.7210     1.8720    -0.1640 c5         1 CGW       0.045900
      9 CAL          2.1520    -0.0280     0.2390 cc         1 CGW      -0.346400
     10 CAM          0.9250     0.3890    -0.1320 cd         1 CGW       0.139400
     11 CAN          2.4630    -1.4310     0.2400 c          1 CGW       0.757700
     12 CAO          0.1530    -1.8210    -0.5670 c          1 CGW       0.838500
     13 NAI          1.4070    -2.2210    -0.1740 ns         1 CGW      -0.603500
     14 NAQ         -0.0700    -0.4600    -0.5200 n          1 CGW      -0.331000
     15 SAJ          2.2220     2.5860     0.5780 ss         1 CGW      -0.369200
     16 H1          -2.5200    -0.8770     2.2560 hn         1 CGW       0.340800
     17 H2          -2.7230    -1.7550     0.9260 hn         1 CGW       0.340800
     18 H4          -1.7640     0.9650     1.1500 h1         1 CGW       0.037700
     19 H6          -1.9190    -0.6780    -1.4160 h1         1 CGW       0.075700
     20 H7          -1.3830     0.9770    -1.2660 h1         1 CGW       0.075700
     21 H8           3.5960     0.8660     1.5690 h1         1 CGW       0.071700
     22 H9           3.9710     1.0560    -0.1450 h1         1 CGW       0.071700
     23 H10          0.5870     2.2130    -1.1930 h1         1 CGW       0.103700
     24 H11         -0.1510     2.1900     0.4060 h1         1 CGW       0.103700
     25 H12          1.5710    -3.2200    -0.2120 hn         1 CGW       0.332500
     26 OAC          3.5330    -1.9210     0.5540 o          1 CGW      -0.644500
     27 OAD         -0.6750    -2.6220    -0.9490 o          1 CGW      -0.623500
@<TRIPOS>BOND
     1     1     2 1   
     2     1    16 1   
     3     1    17 1   
     4     2     3 1   
     5     2     5 1   
     6     2    18 1   
     7     3     4 1   
     8     3     6 1   
     9     5    14 1   
    10     5    19 1   
    11     5    20 1   
    12     7     9 1   
    13     7    15 1   
    14     7    21 1   
    15     7    22 1   
    16     8    10 1   
    17     8    15 1   
    18     8    23 1   
    19     8    24 1   
    20     9    10 2   
    21     9    11 1   
    22    10    14 1   
    23    11    13 1   
    24    11    26 2   
    25    12    13 1   
    26    12    14 1   
    27    12    27 2   
    28    13    25 1   
@<TRIPOS>SUBSTRUCTURE
     1 CGW         1 TEMP              0 ****  ****    0 ROOT
