@<TRIPOS>MOLECULE
CGW
   27    28     1     0     0
SMALL
No Charge or Current Charge


@<TRIPOS>ATOM
      1 N           -2.4060    -1.0220     1.4730 n8         1 CGW      -1.004200
      2 CA          -2.3230     0.1870     0.5630 c3         1 CGW      -0.008500
      3 C           -3.6980     0.7980     0.0900 c          1 CGW       0.697000
      4 OXT         -3.9050     1.9850     0.2970 o          1 CGW      -0.720500
      5 CB          -1.4420    -0.0760    -0.6930 c3         1 CGW       0.108000
      6 O           -4.5390     0.0410    -0.3790 o          1 CGW      -0.720500
      7 CAF          3.2590     1.0770     0.4520 c5         1 CGW       0.168800
      8 CAG          0.7310     1.8390    -0.1110 c5         1 CGW       0.093800
      9 CAL          2.2690    -0.0220     0.1900 cc         1 CGW      -0.346400
     10 CAM          0.9870     0.3490    -0.0780 cd         1 CGW       0.139400
     11 CAN          2.5900    -1.4510     0.1740 c          1 CGW       0.615200
     12 CAO          0.2500    -1.9050    -0.4460 c          1 CGW       0.629000
     13 NAI          1.5370    -2.2560    -0.1460 ns         1 CGW      -0.469500
     14 NAQ         -0.0510    -0.5240    -0.3930 n          1 CGW      -0.264000
     15 SAJ          2.1920     2.5700     0.8000 ss         1 CGW      -0.465000
     16 H1          -3.0000    -0.7980     2.2810 hn         1 CGW       0.396000
     17 H2          -2.9400    -1.7590     0.9920 hn         1 CGW       0.396000
     18 H4          -1.8330     0.9710     1.1550 h1         1 CGW       0.037700
     19 H6          -1.9420    -0.8230    -1.3230 h1         1 CGW       0.075700
     20 H7          -1.4010     0.8390    -1.2970 h1         1 CGW       0.075700
     21 H8           3.9040     0.8530     1.3130 h1         1 CGW       0.071700
     22 H9           3.8910     1.2550    -0.4290 h1         1 CGW       0.071700
     23 H10          0.7030     2.1910    -1.1500 h1         1 CGW       0.103700
     24 H11         -0.2020     2.1130     0.3950 h1         1 CGW       0.103700
     25 H12          1.7370    -3.2420    -0.1780 hn         1 CGW       0.332500
     26 OAC          3.6960    -1.9070     0.4070 o          1 CGW      -0.569000
     27 OAD         -0.5600    -2.7660    -0.7540 o          1 CGW      -0.548000
@<TRIPOS>BOND
     1     1     2 1   
     2     1    16 1   
     3     1    17 1   
     4     2     3 1   
     5     2     5 1   
     6     2    18 1   
     7     3     4 1   
     8     3     6 1   
     9     5    14 1   
    10     5    19 1   
    11     5    20 1   
    12     7     9 1   
    13     7    15 1   
    14     7    21 1   
    15     7    22 1   
    16     8    10 1   
    17     8    15 1   
    18     8    23 1   
    19     8    24 1   
    20     9    10 2   
    21     9    11 1   
    22    10    14 1   
    23    11    13 1   
    24    11    26 2   
    25    12    13 1   
    26    12    14 1   
    27    12    27 2   
    28    13    25 1   
@<TRIPOS>SUBSTRUCTURE
     1 CGW         1 TEMP              0 ****  ****    0 ROOT
