@<TRIPOS>MOLECULE
CGX
   42    44     1     0     0
SMALL
No Charge or Current Charge


@<TRIPOS>ATOM
      1 C5          28.3530     7.8270   -16.7910 ca         1 CGX      -0.320300
      2 C4          26.9640     8.0070   -16.9360 ca         1 CGX       0.424900
      3 C2          27.0900     9.9910   -15.8490 ca         1 CGX       0.415900
      4 C6          29.0390     8.8590   -16.1110 ca         1 CGX       0.412900
      5 CAA         32.3420     8.4330   -14.3200 c6         1 CGX      -0.082400
      6 CAB         33.3370     8.8420   -15.4330 c6         1 CGX      -0.074400
      7 CAC         32.7250     8.5640   -16.8270 c6         1 CGX      -0.082400
      8 CAD         30.9620     9.1090   -14.5230 c6         1 CGX       0.204800
      9 CAF         31.3400     9.2420   -16.9730 c6         1 CGX       0.204800
     10 CAJ         29.0670     6.5650   -17.3050 c3         1 CGX      -0.001100
     11 CAK         29.2570     6.5540   -18.8360 c3         1 CGX      -0.093100
     12 CAQ         24.7680     7.1150   -17.8290 cx         1 CGX       0.179500
     13 CAR         24.2400     6.2950   -18.9790 cx         1 CGX      -0.133900
     14 CAS         24.3300     7.7960   -19.1020 cx         1 CGX      -0.133900
     15 N1          28.4030     9.9430   -15.6360 nb         1 CGX      -0.336000
     16 N3          26.3280     9.0910   -16.4670 nb         1 CGX      -0.323000
     17 NAE         30.4260     8.8170   -15.8810 nh         1 CGX      -0.765300
     18 NAO         26.4530    11.0820   -15.3690 nv         1 CGX      -1.048900
     19 NAP         26.1790     7.0480   -17.5670 nu         1 CGX      -0.909100
     20 H1          32.2170     7.3420   -14.3200 hc         1 CGX       0.045700
     21 H2          32.7470     8.7020   -13.3360 hc         1 CGX       0.045700
     22 H3          34.2810     8.2930   -15.3180 hc         1 CGX       0.039200
     23 H4          33.5790     9.9100   -15.3400 hc         1 CGX       0.039200
     24 H5          32.6190     7.4810   -16.9780 hc         1 CGX       0.045700
     25 H6          33.4000     8.9260   -17.6140 hc         1 CGX       0.045700
     26 H7          31.0640    10.1950   -14.3800 h1         1 CGX       0.044200
     27 H8          30.2710     8.7370   -13.7520 h1         1 CGX       0.044200
     28 H9          31.4670    10.3350   -16.9510 h1         1 CGX       0.044200
     29 H10         30.9170     8.9840   -17.9540 h1         1 CGX       0.044200
     30 H11         28.5050     5.6690   -17.0130 hc         1 CGX       0.042200
     31 H12         30.0500     6.4430   -16.8350 hc         1 CGX       0.042200
     32 H13         29.7830     5.6440   -19.1470 hc         1 CGX       0.031700
     33 H14         28.2940     6.5840   -19.3570 hc         1 CGX       0.031700
     34 H15         29.8480     7.4170   -19.1630 hc         1 CGX       0.031700
     35 H16         24.1310     7.2220   -16.9470 h1         1 CGX       0.081700
     36 H17         23.2530     5.8530   -18.8680 hc         1 CGX       0.076200
     37 H18         24.9440     5.6970   -19.5530 hc         1 CGX       0.076200
     38 H19         25.0990     8.2090   -19.7490 hc         1 CGX       0.076200
     39 H20         23.4040     8.3650   -19.0720 hc         1 CGX       0.076200
     40 H21         25.4390    11.0550   -15.3040 hn         1 CGX       0.480000
     41 H22         26.9420    11.6740   -14.7050 hn         1 CGX       0.480000
     42 H23         26.7140     6.2480   -17.8970 hn         1 CGX       0.497000
@<TRIPOS>BOND
     1     1     2 ar  
     2     1     4 ar  
     3     1    10 1   
     4     2    16 ar  
     5     2    19 1   
     6     3    15 ar  
     7     3    16 ar  
     8     3    18 1   
     9     4    15 ar  
    10     4    17 1   
    11     5     6 1   
    12     5     8 1   
    13     5    20 1   
    14     5    21 1   
    15     6     7 1   
    16     6    22 1   
    17     6    23 1   
    18     7     9 1   
    19     7    24 1   
    20     7    25 1   
    21     8    17 1   
    22     8    26 1   
    23     8    27 1   
    24     9    17 1   
    25     9    28 1   
    26     9    29 1   
    27    10    11 1   
    28    10    30 1   
    29    10    31 1   
    30    11    32 1   
    31    11    33 1   
    32    11    34 1   
    33    12    13 1   
    34    12    14 1   
    35    12    19 1   
    36    12    35 1   
    37    13    14 1   
    38    13    36 1   
    39    13    37 1   
    40    14    38 1   
    41    14    39 1   
    42    18    40 1   
    43    18    41 1   
    44    19    42 1   
@<TRIPOS>SUBSTRUCTURE
     1 CGX         1 TEMP              0 ****  ****    0 ROOT
