@<TRIPOS>MOLECULE
CGX
   42    44     1     0     0
SMALL
abcg2


@<TRIPOS>ATOM
      1 C5          28.4500     7.8010   -16.9350 ca         1 CGX      -0.320300
      2 C4          27.0550     7.9680   -17.0820 ca         1 CGX       0.424900
      3 C2          27.0800     9.7990   -15.7570 ca         1 CGX       0.415900
      4 C6          29.0700     8.7680   -16.1360 ca         1 CGX       0.412900
      5 CAA         32.2460     8.8460   -14.2420 c6         1 CGX      -0.082400
      6 CAB         33.2730     8.8870   -15.3670 c6         1 CGX      -0.074400
      7 CAC         32.7120     8.2180   -16.6140 c6         1 CGX      -0.082400
      8 CAD         30.9100     9.4250   -14.6880 c6         1 CGX       0.204800
      9 CAF         31.3640     8.8160   -16.9790 c6         1 CGX       0.204800
     10 CAJ         29.1400     6.5900   -17.5000 c3         1 CGX      -0.001100
     11 CAK         29.3410     6.5970   -19.0180 c3         1 CGX      -0.093100
     12 CAQ         24.9010     7.1080   -17.8370 cx         1 CGX       0.179500
     13 CAR         24.2380     6.5370   -19.0480 cx         1 CGX      -0.133900
     14 CAS         24.2090     8.0160   -18.8020 cx         1 CGX      -0.133900
     15 N1          28.3890     9.7510   -15.5420 nb         1 CGX      -0.336000
     16 N3          26.3770     8.9630   -16.5120 nb         1 CGX      -0.323000
     17 NAE         30.4300     8.7140   -15.8630 nh         1 CGX      -0.765300
     18 NAO         26.4000    10.8280   -15.1850 nv         1 CGX      -1.048900
     19 NAP         26.3240     7.0850   -17.8080 nu         1 CGX      -0.909100
     20 H1          32.0960     7.8130   -13.9160 hc         1 CGX       0.045700
     21 H2          32.6020     9.4060   -13.3740 hc         1 CGX       0.045700
     22 H3          34.2050     8.4090   -15.0570 hc         1 CGX       0.039200
     23 H4          33.5170     9.9290   -15.5970 hc         1 CGX       0.039200
     24 H5          32.5920     7.1440   -16.4410 hc         1 CGX       0.045700
     25 H6          33.3960     8.3320   -17.4580 hc         1 CGX       0.045700
     26 H7          31.0260    10.5010   -14.8890 h1         1 CGX       0.044200
     27 H8          30.1780     9.3300   -13.8880 h1         1 CGX       0.044200
     28 H9          31.4990     9.8740   -17.2550 h1         1 CGX       0.044200
     29 H10         30.9560     8.3230   -17.8560 h1         1 CGX       0.044200
     30 H11         28.5700     5.6930   -17.2300 hc         1 CGX       0.042200
     31 H12         30.1050     6.4580   -17.0060 hc         1 CGX       0.042200
     32 H13         29.8090     5.6680   -19.3480 hc         1 CGX       0.031700
     33 H14         28.3990     6.6980   -19.5570 hc         1 CGX       0.031700
     34 H15         29.9800     7.4200   -19.3390 hc         1 CGX       0.031700
     35 H16         24.4070     6.9450   -16.8830 h1         1 CGX       0.081700
     36 H17         23.3290     5.9690   -18.9010 hc         1 CGX       0.076200
     37 H18         24.8720     6.1670   -19.8450 hc         1 CGX       0.076200
     38 H19         24.8360     8.6410   -19.4250 hc         1 CGX       0.076200
     39 H20         23.2790     8.4720   -18.4910 hc         1 CGX       0.076200
     40 H21         25.4010    10.7340   -15.1150 hn         1 CGX       0.480000
     41 H22         26.8440    11.2990   -14.4160 hn         1 CGX       0.480000
     42 H23         26.7650     6.2250   -18.0850 hn         1 CGX       0.497000
@<TRIPOS>BOND
     1     1     2 ar  
     2     1     4 ar  
     3     1    10 1   
     4     2    16 ar  
     5     2    19 1   
     6     3    15 ar  
     7     3    16 ar  
     8     3    18 1   
     9     4    15 ar  
    10     4    17 1   
    11     5     6 1   
    12     5     8 1   
    13     5    20 1   
    14     5    21 1   
    15     6     7 1   
    16     6    22 1   
    17     6    23 1   
    18     7     9 1   
    19     7    24 1   
    20     7    25 1   
    21     8    17 1   
    22     8    26 1   
    23     8    27 1   
    24     9    17 1   
    25     9    28 1   
    26     9    29 1   
    27    10    11 1   
    28    10    30 1   
    29    10    31 1   
    30    11    32 1   
    31    11    33 1   
    32    11    34 1   
    33    12    13 1   
    34    12    14 1   
    35    12    19 1   
    36    12    35 1   
    37    13    14 1   
    38    13    36 1   
    39    13    37 1   
    40    14    38 1   
    41    14    39 1   
    42    18    40 1   
    43    18    41 1   
    44    19    42 1   
@<TRIPOS>SUBSTRUCTURE
     1 CGX         1 TEMP              0 ****  ****    0 ROOT
