@<TRIPOS>MOLECULE
CGZ
   40    42     1     0     0
SMALL
No Charge or Current Charge


@<TRIPOS>ATOM
      1 N1         146.0980   138.8680   163.7470 n2         1 CGZ      -0.631900
      2 C4         143.2050   140.4780   165.2090 ca         1 CGZ      -0.114300
      3 C5         144.7430   140.3020   165.2640 c6         1 CGZ      -0.041700
      4 C6         145.3590   139.9000   163.9220 c2         1 CGZ       0.569200
      5 C7         146.4810   138.8900   162.3110 c5         1 CGZ       0.085800
      6 C8         145.4780   139.8660   161.6470 c5         1 CGZ       0.155800
      7 C10        144.7700   142.0590   167.0970 c6         1 CGZ      -0.072400
      8 C13        141.0600   139.6640   164.3820 ca         1 CGZ      -0.148000
      9 N2         145.1520   140.7010   162.8170 nu         1 CGZ      -0.900400
     10 C9         145.4820   141.5370   165.8400 c6         1 CGZ      -0.068400
     11 O1         139.3190   144.0340   168.2120 o          1 CGZ      -0.533000
     12 C1         141.1250   141.6530   165.8090 ca         1 CGZ       0.135000
     13 C3         142.5400   141.5300   165.9000 ca         1 CGZ      -0.046300
     14 C2         140.0990   141.5980   168.8950 c3         1 CGZ      -0.373100
     15 N          140.4780   142.7370   166.4470 nu         1 CGZ      -0.894100
     16 C          140.3980   140.7110   165.0310 ca         1 CGZ       0.191100
     17 O          139.0450   140.8120   164.8770 oh         1 CGZ      -0.537100
     18 C11        143.3500   142.5390   166.7410 c6         1 CGZ      -0.037100
     19 C12        142.4500   139.5420   164.4750 ca         1 CGZ      -0.068000
     20 O2         138.1860   142.0450   167.1030 o          1 CGZ      -0.533000
     21 S          139.3730   142.6730   167.6820 s6         1 CGZ       1.182100
     22 H3         144.9290   139.4710   165.9560 hc         1 CGZ       0.088700
     23 H5         146.4140   137.8890   161.8620 h1         1 CGZ       0.063700
     24 H6         147.5170   139.2420   162.2030 h1         1 CGZ       0.063700
     25 H7         144.5950   139.3270   161.2750 h1         1 CGZ       0.047700
     26 H8         145.9230   140.4280   160.8130 h1         1 CGZ       0.047700
     27 H9         144.7180   141.2640   167.8540 hc         1 CGZ       0.048700
     28 H10        145.3430   142.8830   167.5440 hc         1 CGZ       0.048700
     29 H11        140.4910   138.9460   163.7960 ha         1 CGZ       0.139000
     30 H12        144.2860   141.2380   162.8420 hn         1 CGZ       0.476000
     31 H14        146.5220   141.2730   166.0780 hc         1 CGZ       0.057700
     32 H15        145.5280   142.3390   165.0900 hc         1 CGZ       0.057700
     33 H16        139.3920   141.5190   169.7270 h1         1 CGZ       0.106700
     34 H17        140.2630   140.6260   168.4200 h1         1 CGZ       0.106700
     35 H18        141.0420   142.0480   169.2190 h1         1 CGZ       0.106700
     36 H19        141.0770   143.5010   166.7360 hn         1 CGZ       0.501000
     37 H20        138.7350   141.4580   165.5610 ho         1 CGZ       0.508000
     38 H21        143.4200   143.4860   166.1880 hc         1 CGZ       0.042700
     39 H22        142.8300   142.7670   167.6810 hc         1 CGZ       0.042700
     40 H23        142.9410   138.7150   163.9650 ha         1 CGZ       0.127000
@<TRIPOS>BOND
     1     1     4 2   
     2     1     5 1   
     3     2     3 1   
     4     2    13 ar  
     5     2    19 ar  
     6     3     4 1   
     7     3    10 1   
     8     3    22 1   
     9     4     9 1   
    10     5     6 1   
    11     5    23 1   
    12     5    24 1   
    13     6     9 1   
    14     6    25 1   
    15     6    26 1   
    16     7    10 1   
    17     7    18 1   
    18     7    27 1   
    19     7    28 1   
    20     8    16 ar  
    21     8    19 ar  
    22     8    29 1   
    23     9    30 1   
    24    10    31 1   
    25    10    32 1   
    26    11    21 2   
    27    12    13 ar  
    28    12    15 1   
    29    12    16 ar  
    30    13    18 1   
    31    14    21 1   
    32    14    33 1   
    33    14    34 1   
    34    14    35 1   
    35    15    21 1   
    36    15    36 1   
    37    16    17 1   
    38    17    37 1   
    39    18    38 1   
    40    18    39 1   
    41    19    40 1   
    42    20    21 2   
@<TRIPOS>SUBSTRUCTURE
     1 CGZ         1 TEMP              0 ****  ****    0 ROOT
