@<TRIPOS>MOLECULE
CGZ
   40    42     1     0     0
SMALL
bcc


@<TRIPOS>ATOM
      1 N1         145.9000   138.7840   163.7970 n2         1 CGZ      -0.631900
      2 C4         143.1560   140.5030   165.1760 ca         1 CGZ      -0.114300
      3 C5         144.6550   140.2790   165.2870 c6         1 CGZ      -0.041700
      4 C6         145.2520   139.8700   163.9740 c2         1 CGZ       0.569200
      5 C7         146.3670   138.7990   162.4130 c5         1 CGZ       0.085800
      6 C8         145.5880   139.9380   161.7280 c5         1 CGZ       0.155800
      7 C10        144.6670   141.9990   167.0890 c6         1 CGZ      -0.072400
      8 C13        141.0370   139.7780   164.2520 ca         1 CGZ      -0.166000
      9 N2         145.1770   140.7110   162.8910 nu         1 CGZ      -0.845200
     10 C9         145.3860   141.4960   165.8530 c6         1 CGZ      -0.068400
     11 O1         139.0250   143.8050   168.1450 o          1 CGZ      -0.603800
     12 C1         141.1090   141.6570   165.7470 ca         1 CGZ      -0.003400
     13 C3         142.5000   141.5140   165.8810 ca         1 CGZ      -0.046300
     14 C2         140.4590   141.7590   168.9910 c3         1 CGZ      -0.262300
     15 N          140.4370   142.7400   166.3830 nu         1 CGZ      -0.700500
     16 C          140.3700   140.7990   164.9220 ca         1 CGZ       0.191100
     17 O          139.0510   140.9250   164.7060 oh         1 CGZ      -0.498100
     18 C11        143.2740   142.4910   166.7300 c6         1 CGZ      -0.037100
     19 C12        142.4020   139.6390   164.3830 ca         1 CGZ      -0.086000
     20 O2         138.4830   141.5010   167.3040 o          1 CGZ      -0.603800
     21 S          139.4750   142.4980   167.7110 s6         1 CGZ       1.212900
     22 H3         144.8230   139.4400   165.9710 hc         1 CGZ       0.088700
     23 H5         146.2090   137.8330   161.9320 h1         1 CGZ       0.063700
     24 H6         147.4450   138.9910   162.3930 h1         1 CGZ       0.063700
     25 H7         144.7220   139.5600   161.1750 h1         1 CGZ       0.047700
     26 H8         146.2000   140.5230   161.0420 h1         1 CGZ       0.047700
     27 H9         144.5960   141.1960   167.8290 hc         1 CGZ       0.048700
     28 H10        145.2280   142.8100   167.5560 hc         1 CGZ       0.048700
     29 H11        140.4720   139.1010   163.6230 ha         1 CGZ       0.157000
     30 H12        144.3790   141.3230   162.8090 hn         1 CGZ       0.420800
     31 H14        146.4160   141.2180   166.0830 hc         1 CGZ       0.057700
     32 H15        145.4330   142.2940   165.1060 hc         1 CGZ       0.057700
     33 H16        139.7880   141.4990   169.8080 h1         1 CGZ       0.106700
     34 H17        140.9420   140.8610   168.6110 h1         1 CGZ       0.106700
     35 H18        141.2000   142.4780   169.3340 h1         1 CGZ       0.106700
     36 H19        140.9370   143.6230   166.4180 hn         1 CGZ       0.445800
     37 H20        138.6170   141.3280   165.4770 ho         1 CGZ       0.469000
     38 H21        143.3560   143.4400   166.1860 hc         1 CGZ       0.042700
     39 H22        142.7300   142.7250   167.6470 hc         1 CGZ       0.042700
     40 H23        142.8930   138.8310   163.8540 ha         1 CGZ       0.145000
@<TRIPOS>BOND
     1     1     4 2   
     2     1     5 1   
     3     2     3 1   
     4     2    13 ar  
     5     2    19 ar  
     6     3     4 1   
     7     3    10 1   
     8     3    22 1   
     9     4     9 1   
    10     5     6 1   
    11     5    23 1   
    12     5    24 1   
    13     6     9 1   
    14     6    25 1   
    15     6    26 1   
    16     7    10 1   
    17     7    18 1   
    18     7    27 1   
    19     7    28 1   
    20     8    16 ar  
    21     8    19 ar  
    22     8    29 1   
    23     9    30 1   
    24    10    31 1   
    25    10    32 1   
    26    11    21 2   
    27    12    13 ar  
    28    12    15 1   
    29    12    16 ar  
    30    13    18 1   
    31    14    21 1   
    32    14    33 1   
    33    14    34 1   
    34    14    35 1   
    35    15    21 1   
    36    15    36 1   
    37    16    17 1   
    38    17    37 1   
    39    18    38 1   
    40    18    39 1   
    41    19    40 1   
    42    20    21 2   
@<TRIPOS>SUBSTRUCTURE
     1 CGZ         1 TEMP              0 ****  ****    0 ROOT
