@<TRIPOS>MOLECULE
CH4
   33    32     1     0     0
SMALL
abcg2


@<TRIPOS>ATOM
      1 CA          -0.0120     0.2550     0.0570 c3         1 CH4      -0.190700
      2 CB1          1.2480    -0.5160     0.4640 c3         1 CH4       0.172800
      3 NG1          2.4460     0.0820    -0.0870 n7         1 CH4      -0.864400
      4 CD1          3.6360    -0.7130     0.1500 c3         1 CH4       0.157800
      5 CE1          4.8490    -0.0790    -0.5100 c3         1 CH4       0.146800
      6 NZ1          6.0350    -0.8860    -0.2710 n8         1 CH4      -0.999200
      7 CB2         -1.2660    -0.5240     0.4660 c3         1 CH4       0.172800
      8 NG2         -2.4690     0.0730    -0.0740 n7         1 CH4      -0.864400
      9 CD2         -3.6540    -0.7310     0.1570 c3         1 CH4       0.157800
     10 CE2         -4.8710    -0.1000    -0.4970 c3         1 CH4       0.146800
     11 NZ2         -6.0520    -0.9170    -0.2610 n8         1 CH4      -0.999200
     12 C           -0.0150     1.5870     0.7460 c          1 CH4       0.568900
     13 O           -0.0120     2.6650     0.2050 o          1 CH4      -0.502100
     14 HA          -0.0130     0.3970    -1.0260 hc         1 CH4       0.108700
     15 HB12         1.1610    -1.5310     0.0660 h1         1 CH4       0.033700
     16 HB13         1.2790    -0.6220     1.5610 h1         1 CH4       0.033700
     17 HG1          2.5900     1.0010     0.3150 hn         1 CH4       0.407000
     18 HD12         3.4790    -1.7080    -0.2780 h1         1 CH4       0.036700
     19 HD13         3.8400    -0.8650     1.2230 h1         1 CH4       0.036700
     20 HE12         4.9450     0.9600    -0.1610 h1         1 CH4       0.035950
     21 HE13         4.6750    -0.0280    -1.5870 h1         1 CH4       0.035950
     22 HZ11         6.8140    -0.5030    -0.7890 hn         1 CH4       0.393500
     23 HZ12         6.2960    -0.8200     0.7050 hn         1 CH4       0.393500
     24 HB22        -1.1760    -1.5360     0.0620 h1         1 CH4       0.033700
     25 HB23        -1.2900    -0.6350     1.5620 h1         1 CH4       0.033700
     26 HG2         -2.6170     0.9860     0.3410 hn         1 CH4       0.407000
     27 HD22        -3.4910    -1.7220    -0.2790 h1         1 CH4       0.036700
     28 HD23        -3.8560    -0.8930     1.2290 h1         1 CH4       0.036700
     29 HE22        -4.9740     0.9360    -0.1410 h1         1 CH4       0.035950
     30 HE23        -4.6990    -0.0410    -1.5750 h1         1 CH4       0.035950
     31 HZ21        -6.3150    -0.8550     0.7150 hn         1 CH4       0.393500
     32 HZ22        -6.8330    -0.5380    -0.7790 hn         1 CH4       0.393500
     33 H           -0.0190     1.5090     1.8520 h4         1 CH4      -0.029800
@<TRIPOS>BOND
     1     1     2 1   
     2     1     7 1   
     3     1    12 1   
     4     1    14 1   
     5     2     3 1   
     6     2    15 1   
     7     2    16 1   
     8     3     4 1   
     9     3    17 1   
    10     4     5 1   
    11     4    18 1   
    12     4    19 1   
    13     5     6 1   
    14     5    20 1   
    15     5    21 1   
    16     6    22 1   
    17     6    23 1   
    18     7     8 1   
    19     7    24 1   
    20     7    25 1   
    21     8     9 1   
    22     8    26 1   
    23     9    10 1   
    24     9    27 1   
    25     9    28 1   
    26    10    11 1   
    27    10    29 1   
    28    10    30 1   
    29    11    31 1   
    30    11    32 1   
    31    12    13 2   
    32    12    33 1   
@<TRIPOS>SUBSTRUCTURE
     1 CH4         1 TEMP              0 ****  ****    0 ROOT
