@<TRIPOS>MOLECULE
CH4
   33    32     1     0     0
SMALL
No Charge or Current Charge


@<TRIPOS>ATOM
      1 CA          -0.0110     0.1350     0.1000 c3         1 CH4      -0.190700
      2 CB1          1.2590    -0.6400     0.4990 c3         1 CH4       0.172800
      3 NG1          2.4580    -0.0140    -0.0860 n7         1 CH4      -0.864400
      4 CD1          3.7260    -0.7430     0.1500 c3         1 CH4       0.157800
      5 CE1          4.9240    -0.0390    -0.5490 c3         1 CH4       0.146800
      6 NZ1          6.2210    -0.7250    -0.3200 n8         1 CH4      -0.999200
      7 CB2         -1.2770    -0.6460     0.5020 c3         1 CH4       0.172800
      8 NG2         -2.4800    -0.0260    -0.0810 n7         1 CH4      -0.864400
      9 CD2         -3.7430    -0.7620     0.1580 c3         1 CH4       0.157800
     10 CE2         -4.9470    -0.0630    -0.5380 c3         1 CH4       0.146800
     11 NZ2         -6.2400    -0.7560    -0.3070 n8         1 CH4      -0.999200
     12 C           -0.0140     1.5190     0.7440 c          1 CH4       0.568900
     13 O           -0.0170     2.5660     0.1060 o          1 CH4      -0.502100
     14 HA          -0.0130     0.2610    -0.9880 hc         1 CH4       0.108700
     15 HB12         1.1700    -1.6730     0.1330 h1         1 CH4       0.033700
     16 HB13         1.3370    -0.6850     1.5950 h1         1 CH4       0.033700
     17 HG1          2.5610     0.9340     0.2950 hn         1 CH4       0.407000
     18 HD12         3.6480    -1.7700    -0.2350 h1         1 CH4       0.036700
     19 HD13         3.9290    -0.8080     1.2280 h1         1 CH4       0.036700
     20 HE12         5.0070     0.9930    -0.1780 h1         1 CH4       0.035950
     21 HE13         4.7380     0.0020    -1.6310 h1         1 CH4       0.035950
     22 HZ11         6.9700    -0.1800    -0.7660 hn         1 CH4       0.393500
     23 HZ12         6.4540    -0.6780     0.6790 hn         1 CH4       0.393500
     24 HB22        -1.1830    -1.6790     0.1360 h1         1 CH4       0.033700
     25 HB23        -1.3520    -0.6910     1.5980 h1         1 CH4       0.033700
     26 HG2         -2.5870     0.9220     0.3000 hn         1 CH4       0.407000
     27 HD22        -3.6620    -1.7880    -0.2270 h1         1 CH4       0.036700
     28 HD23        -3.9440    -0.8270     1.2360 h1         1 CH4       0.036700
     29 HE22        -5.0340     0.9680    -0.1670 h1         1 CH4       0.035950
     30 HE23        -4.7630    -0.0230    -1.6210 h1         1 CH4       0.035950
     31 HZ21        -6.4710    -0.7100     0.6930 hn         1 CH4       0.393500
     32 HZ22        -6.9930    -0.2160    -0.7510 hn         1 CH4       0.393500
     33 H           -0.0130     1.5300     1.8560 h4         1 CH4      -0.029800
@<TRIPOS>BOND
     1     1     2 1   
     2     1     7 1   
     3     1    12 1   
     4     1    14 1   
     5     2     3 1   
     6     2    15 1   
     7     2    16 1   
     8     3     4 1   
     9     3    17 1   
    10     4     5 1   
    11     4    18 1   
    12     4    19 1   
    13     5     6 1   
    14     5    20 1   
    15     5    21 1   
    16     6    22 1   
    17     6    23 1   
    18     7     8 1   
    19     7    24 1   
    20     7    25 1   
    21     8     9 1   
    22     8    26 1   
    23     9    10 1   
    24     9    27 1   
    25     9    28 1   
    26    10    11 1   
    27    10    29 1   
    28    10    30 1   
    29    11    31 1   
    30    11    32 1   
    31    12    13 2   
    32    12    33 1   
@<TRIPOS>SUBSTRUCTURE
     1 CH4         1 TEMP              0 ****  ****    0 ROOT
