@<TRIPOS>MOLECULE
CH5
   36    35     1     0     0
SMALL
No Charge or Current Charge


@<TRIPOS>ATOM
      1 C1           1.6440    -0.6680    -0.5290 c3         1 CH5       0.188600
      2 C2           1.8320     0.5190     0.4580 c3         1 CH5       0.160300
      3 C3           2.9050     0.2090     1.5340 c3         1 CH5       0.122600
      4 C4          -2.2690    -1.6500    -0.6090 c3         1 CH5       0.213600
      5 C5          -1.9830    -0.4390     0.3160 c3         1 CH5       0.085600
      6 C6          -4.1630     0.7940    -0.0210 c3         1 CH5       0.073567
      7 C7          -2.1480     1.4290    -1.3800 c3         1 CH5       0.073567
      8 C8          -2.2220     1.9350     1.0600 c3         1 CH5       0.073567
      9 N           -2.6310     0.9190    -0.0140 n4         1 CH5      -0.486000
     10 O2           2.2180     1.7230    -0.2370 oh         1 CH5      -0.634000
     11 O3           3.0890     1.3450     2.3950 oh         1 CH5      -0.647000
     12 O1P         -1.0180    -1.0780    -3.3200 o          1 CH5      -0.819000
     13 O2P          0.8710    -2.5510    -2.7330 o          1 CH5      -0.819000
     14 O3P          0.5410    -0.3870    -1.4040 os         1 CH5      -0.580400
     15 O4P         -1.0310    -2.2440    -1.0380 os         1 CH5      -0.571400
     16 P           -0.1490    -1.5900    -2.2220 p5         1 CH5       1.380800
     17 H11          1.4530    -1.5820     0.0500 h1         1 CH5       0.029700
     18 H12          2.5670    -0.8180    -1.1040 h1         1 CH5       0.029700
     19 H2           0.8790     0.6750     0.9810 h1         1 CH5       0.092700
     20 H31          2.5820    -0.6620     2.1200 h1         1 CH5       0.018700
     21 H32          3.8510    -0.0530     1.0410 h1         1 CH5       0.018700
     22 H41         -2.8700    -2.3820    -0.0550 h1         1 CH5       0.054700
     23 H42         -2.8670    -1.3270    -1.4700 h1         1 CH5       0.054700
     24 H51         -0.9070    -0.2790     0.3530 hx         1 CH5       0.079700
     25 H52         -2.3010    -0.7110     1.3240 hx         1 CH5       0.079700
     26 H61         -4.4670     0.0910    -0.7990 hx         1 CH5       0.095700
     27 H62         -4.5000     0.4340     0.9530 hx         1 CH5       0.095700
     28 H63         -4.6020     1.7730    -0.2220 hx         1 CH5       0.095700
     29 H71         -2.5900     2.4070    -1.5780 hx         1 CH5       0.095700
     30 H72         -1.0590     1.5120    -1.3680 hx         1 CH5       0.095700
     31 H73         -2.4520     0.7260    -2.1590 hx         1 CH5       0.095700
     32 H81         -2.5580     1.5830     2.0370 hx         1 CH5       0.095700
     33 H82         -1.1350     2.0410     1.0610 hx         1 CH5       0.095700
     34 H83         -2.6830     2.9000     0.8390 hx         1 CH5       0.095700
     35 HO2          2.6520     2.2770     0.4510 ho         1 CH5       0.430000
     36 HO3          3.7430     1.0850     3.0820 ho         1 CH5       0.435000
@<TRIPOS>BOND
     1     1     2 1   
     2     1    14 1   
     3     1    17 1   
     4     1    18 1   
     5     2     3 1   
     6     2    10 1   
     7     2    19 1   
     8     3    11 1   
     9     3    20 1   
    10     3    21 1   
    11     4     5 1   
    12     4    15 1   
    13     4    22 1   
    14     4    23 1   
    15     5     9 1   
    16     5    24 1   
    17     5    25 1   
    18     6     9 1   
    19     6    26 1   
    20     6    27 1   
    21     6    28 1   
    22     7     9 1   
    23     7    29 1   
    24     7    30 1   
    25     7    31 1   
    26     8     9 1   
    27     8    32 1   
    28     8    33 1   
    29     8    34 1   
    30    10    35 1   
    31    11    36 1   
    32    12    16 1   
    33    13    16 1   
    34    14    16 1   
    35    15    16 1   
@<TRIPOS>SUBSTRUCTURE
     1 CH5         1 TEMP              0 ****  ****    0 ROOT
