@<TRIPOS>MOLECULE
CH5
   36    35     1     0     0
SMALL
abcg2


@<TRIPOS>ATOM
      1 C1           2.4830    -0.4280    -0.3720 c3         1 CH5       0.188600
      2 C2           3.4160     0.4260     0.4700 c3         1 CH5       0.160300
      3 C3           4.8550     0.1810     0.0440 c3         1 CH5       0.122600
      4 C4          -2.4000    -1.4150     0.3130 c3         1 CH5       0.213600
      5 C5          -3.5030    -0.5020     0.7950 c3         1 CH5       0.085600
      6 C6          -3.9670     0.4430    -1.4440 c3         1 CH5       0.073567
      7 C7          -2.6860     1.7600     0.1460 c3         1 CH5       0.073567
      8 C8          -5.0340     1.3390     0.5420 c3         1 CH5       0.073567
      9 N           -3.7750     0.7500     0.0010 n4         1 CH5      -0.486000
     10 O2           3.0670     1.7890     0.4380 oh         1 CH5      -0.634000
     11 O3           5.7120     0.9120     0.8860 oh         1 CH5      -0.647000
     12 O1P         -0.4820    -0.0440    -1.8340 o          1 CH5      -0.819000
     13 O2P          0.2480    -2.4030    -1.0460 o          1 CH5      -0.819000
     14 O3P          1.1670    -0.3010     0.1320 os         1 CH5      -0.580400
     15 O4P         -1.1200    -0.8610     0.5120 os         1 CH5      -0.571400
     16 P           -0.0470    -0.9690    -0.7340 p5         1 CH5       1.380800
     17 H11          2.8120    -1.4720    -0.3360 h1         1 CH5       0.029700
     18 H12          2.5400    -0.1070    -1.4210 h1         1 CH5       0.029700
     19 H2           3.3120     0.1180     1.5160 h1         1 CH5       0.092700
     20 H31          5.0570    -0.8970     0.0960 h1         1 CH5       0.018700
     21 H32          4.9760     0.4740    -1.0100 h1         1 CH5       0.018700
     22 H41         -2.5040    -2.3240     0.9130 h1         1 CH5       0.054700
     23 H42         -2.5800    -1.7190    -0.7230 h1         1 CH5       0.054700
     24 H51         -3.3230    -0.1840     1.8220 hx         1 CH5       0.079700
     25 H52         -4.4290    -1.0760     0.7780 hx         1 CH5       0.079700
     26 H61         -3.0220     0.1300    -1.8790 hx         1 CH5       0.095700
     27 H62         -4.7150    -0.3380    -1.5520 hx         1 CH5       0.095700
     28 H63         -4.3070     1.3450    -1.9460 hx         1 CH5       0.095700
     29 H71         -3.0240     2.6890    -0.3070 hx         1 CH5       0.095700
     30 H72         -2.4860     1.9210     1.2020 hx         1 CH5       0.095700
     31 H73         -1.7920     1.4180    -0.3610 hx         1 CH5       0.095700
     32 H81         -5.8470     0.6300     0.4150 hx         1 CH5       0.095700
     33 H82         -4.8990     1.5600     1.5980 hx         1 CH5       0.095700
     34 H83         -5.2610     2.2550     0.0040 hx         1 CH5       0.095700
     35 HO2          3.1640     2.1090    -0.4660 ho         1 CH5       0.430000
     36 HO3          6.6160     0.7490     0.6040 ho         1 CH5       0.435000
@<TRIPOS>BOND
     1     1     2 1   
     2     1    14 1   
     3     1    17 1   
     4     1    18 1   
     5     2     3 1   
     6     2    10 1   
     7     2    19 1   
     8     3    11 1   
     9     3    20 1   
    10     3    21 1   
    11     4     5 1   
    12     4    15 1   
    13     4    22 1   
    14     4    23 1   
    15     5     9 1   
    16     5    24 1   
    17     5    25 1   
    18     6     9 1   
    19     6    26 1   
    20     6    27 1   
    21     6    28 1   
    22     7     9 1   
    23     7    29 1   
    24     7    30 1   
    25     7    31 1   
    26     8     9 1   
    27     8    32 1   
    28     8    33 1   
    29     8    34 1   
    30    10    35 1   
    31    11    36 1   
    32    12    16 1   
    33    13    16 1   
    34    14    16 1   
    35    15    16 1   
@<TRIPOS>SUBSTRUCTURE
     1 CH5         1 TEMP              0 ****  ****    0 ROOT
