@<TRIPOS>MOLECULE
CH6
   42    43     1     0     0
SMALL
bcc


@<TRIPOS>ATOM
      1 N1          -1.0190     1.7530     2.0550 n8         1 CH6      -0.887800
      2 CE          -5.7580     3.5690    -0.1710 c3         1 CH6      -0.012000
      3 SD          -4.4080     2.6710    -0.9670 ss         1 CH6      -0.330200
      4 CB1         -2.3610     1.1980     0.0870 c3         1 CH6      -0.068400
      5 CA1         -1.6010     0.6590     1.3080 c3         1 CH6       0.143200
      6 C1          -0.5820    -0.3480     0.8440 cc         1 CH6       0.454900
      7 N2           0.6500    -0.0370     0.6210 nd         1 CH6      -0.685300
      8 CD2          3.5290     0.9220     0.1690 ca         1 CH6      -0.070000
      9 CE2          4.6170     1.7700     0.1260 ca         1 CH6      -0.206500
     10 CZ           5.8690     1.2950    -0.2670 ca         1 CH6       0.130100
     11 CE1          6.0140    -0.0480    -0.6150 ca         1 CH6      -0.206500
     12 CD1          4.9200    -0.8870    -0.5690 ca         1 CH6      -0.070000
     13 CG2          3.6520    -0.4310    -0.1790 ca         1 CH6      -0.074800
     14 CA2          1.2700    -1.1980     0.1810 cd         1 CH6       0.031400
     15 C2           0.2660    -2.2850     0.1500 c          1 CH6       0.683700
     16 O2           0.3690    -3.4530    -0.1710 o          1 CH6      -0.574500
     17 N3          -0.8770    -1.6710     0.6110 n          1 CH6      -0.366300
     18 CA3         -2.1580    -2.3280     0.6150 c3         1 CH6      -0.056000
     19 C3          -2.7930    -2.4560    -0.7900 c          1 CH6       0.925600
     20 O3          -2.2140    -1.8910    -1.7300 o          1 CH6      -0.816800
     21 OXT         -3.8450    -3.1190    -0.8180 o          1 CH6      -0.816800
     22 HN11        -0.6340     1.4080     2.9250 hn         1 CH6       0.346300
     23 HN12        -0.2340     2.1290     1.5350 hn         1 CH6       0.346300
     24 HE1A        -6.3510     4.0390    -0.9530 h1         1 CH6       0.050700
     25 HE2A        -6.3990     2.8940     0.3950 h1         1 CH6       0.050700
     26 HE3         -5.3770     4.3450     0.4920 h1         1 CH6       0.050700
     27 HG11        -3.2840     2.8290     1.1560 h1         1 CH6       0.056700
     28 HG12        -4.2810     1.3750     1.0530 h1         1 CH6       0.056700
     29 HB11        -2.6590     0.3720    -0.5620 hc         1 CH6       0.086700
     30 HB12        -1.6740     1.8160    -0.4990 hc         1 CH6       0.086700
     31 HA1         -2.3160     0.1520     1.9640 h1         1 CH6       0.071700
     32 HOH          6.7370     2.9820    -0.0660 ho         1 CH6       0.420000
     33 HD2          2.5680     1.3100     0.4770 ha         1 CH6       0.148000
     34 HE2          4.4930     2.8130     0.3980 ha         1 CH6       0.130000
     35 HE1          6.9820    -0.4250    -0.9200 ha         1 CH6       0.130000
     36 HD1          5.0470    -1.9280    -0.8420 ha         1 CH6       0.148000
     37 HA31        -2.0370    -3.3210     1.0520 h1         1 CH6       0.042200
     38 HA32        -2.8380    -1.7880     1.2760 h1         1 CH6       0.042200
     39 CB2          2.5610    -1.3800    -0.1630 ce         1 CH6      -0.049200
     40 HB2          2.8190    -2.3890    -0.4720 ha         1 CH6       0.136000
     41 CG1         -3.5780     2.0060     0.5030 c3         1 CH6       0.028700
     42 OH           6.9550     2.0800    -0.3280 oh         1 CH6      -0.502100
@<TRIPOS>BOND
     1     1     5 1   
     2     1    22 1   
     3     1    23 1   
     4     2     3 1   
     5     2    24 1   
     6     2    25 1   
     7     2    26 1   
     8     3    41 1   
     9     4     5 1   
    10     4    29 1   
    11     4    30 1   
    12     4    41 1   
    13     5     6 1   
    14     5    31 1   
    15     6     7 2   
    16     6    17 1   
    17     7    14 1   
    18     8     9 ar  
    19     8    13 ar  
    20     8    33 1   
    21     9    10 ar  
    22     9    34 1   
    23    10    11 ar  
    24    10    42 1   
    25    11    12 ar  
    26    11    35 1   
    27    12    13 ar  
    28    12    36 1   
    29    13    39 1   
    30    14    15 1   
    31    14    39 2   
    32    15    16 2   
    33    15    17 1   
    34    17    18 1   
    35    18    19 1   
    36    18    37 1   
    37    18    38 1   
    38    19    20 1   
    39    19    21 1   
    40    27    41 1   
    41    28    41 1   
    42    32    42 1   
    43    39    40 1   
@<TRIPOS>SUBSTRUCTURE
     1 CH6         1 TEMP              0 ****  ****    0 ROOT
