@<TRIPOS>MOLECULE
CH6
   42    43     1     0     0
SMALL
No Charge or Current Charge


@<TRIPOS>ATOM
      1 N1          -1.0380     1.6080     2.2750 n8         1 CH6      -0.998200
      2 CE          -5.7610     3.8300     0.0470 c3         1 CH6       0.035900
      3 SD          -4.4290     2.8850    -0.8190 ss         1 CH6      -0.426000
      4 CB1         -2.3630     1.2950     0.1810 c3         1 CH6      -0.068400
      5 CA1         -1.6130     0.5880     1.3370 c3         1 CH6       0.143200
      6 C1          -0.5790    -0.4240     0.8060 cc         1 CH6       0.454900
      7 N2           0.7230    -0.1230     0.6750 nd         1 CH6      -0.685300
      8 CD2          3.4810     0.8950    -0.4560 ca         1 CH6      -0.052000
      9 CE2          4.5560     1.8000    -0.5080 ca         1 CH6      -0.188500
     10 CZ           5.8640     1.3520    -0.2730 ca         1 CH6       0.130100
     11 CE1          6.1000    -0.0010     0.0080 ca         1 CH6      -0.188500
     12 CD1          5.0270    -0.9080     0.0590 ca         1 CH6      -0.052000
     13 CG2          3.7070    -0.4670    -0.1630 ca         1 CH6      -0.074800
     14 CA2          1.2520    -1.3150     0.1830 cd         1 CH6       0.031400
     15 C2           0.2380    -2.3740     0.0050 c          1 CH6       0.541200
     16 O2           0.3500    -3.5240    -0.4020 o          1 CH6      -0.499000
     17 N3          -0.8960    -1.7230     0.4290 n          1 CH6      -0.299300
     18 CA3         -2.2440    -2.3590     0.3950 c3         1 CH6      -0.056000
     19 C3          -2.7240    -2.7750    -1.0150 c          1 CH6       0.715000
     20 O3          -2.6210    -1.9640    -1.9240 o          1 CH6      -0.711500
     21 OXT         -3.1850    -3.8990    -1.1610 o          1 CH6      -0.711500
     22 HN11        -0.6310     1.1190     3.0820 hn         1 CH6       0.401500
     23 HN12        -0.2070     2.0090     1.8230 hn         1 CH6       0.401500
     24 HE1A        -6.3940     4.3380    -0.6910 h1         1 CH6       0.050700
     25 HE2A        -6.3800     3.1430     0.6390 h1         1 CH6       0.050700
     26 HE3         -5.3140     4.5780     0.7140 h1         1 CH6       0.050700
     27 HG11        -3.2030     2.9760     1.2870 h1         1 CH6       0.056700
     28 HG12        -4.2620     1.5450     1.2130 h1         1 CH6       0.056700
     29 HB11        -2.7380     0.5360    -0.5150 hc         1 CH6       0.086700
     30 HB12        -1.6590     1.9170    -0.3860 hc         1 CH6       0.086700
     31 HA1         -2.3570     0.0220     1.9140 h1         1 CH6       0.071700
     32 HOH          6.5570     3.1150    -0.5310 ho         1 CH6       0.459000
     33 HD2          2.4760     1.2550    -0.6590 ha         1 CH6       0.130000
     34 HE2          4.3640     2.8460    -0.7360 ha         1 CH6       0.112000
     35 HE1          7.1140    -0.3500     0.1860 ha         1 CH6       0.112000
     36 HD1          5.2220    -1.9560     0.2780 ha         1 CH6       0.130000
     37 HA31        -2.2200    -3.2540     1.0300 h1         1 CH6       0.042200
     38 HA32        -2.9990    -1.6810     0.8080 h1         1 CH6       0.042200
     39 CB2          2.5930    -1.4640    -0.1150 ce         1 CH6      -0.099200
     40 HB2          2.8780    -2.4700    -0.4240 ha         1 CH6       0.186000
     41 CG1         -3.5540     2.1610     0.6410 c3         1 CH6       0.076600
     42 OH           6.9090     2.2240    -0.3230 oh         1 CH6      -0.541100
@<TRIPOS>BOND
     1     1     5 1   
     2     1    22 1   
     3     1    23 1   
     4     2     3 1   
     5     2    24 1   
     6     2    25 1   
     7     2    26 1   
     8     3    41 1   
     9     4     5 1   
    10     4    29 1   
    11     4    30 1   
    12     4    41 1   
    13     5     6 1   
    14     5    31 1   
    15     6     7 2   
    16     6    17 1   
    17     7    14 1   
    18     8     9 ar  
    19     8    13 ar  
    20     8    33 1   
    21     9    10 ar  
    22     9    34 1   
    23    10    11 ar  
    24    10    42 1   
    25    11    12 ar  
    26    11    35 1   
    27    12    13 ar  
    28    12    36 1   
    29    13    39 1   
    30    14    15 1   
    31    14    39 2   
    32    15    16 2   
    33    15    17 1   
    34    17    18 1   
    35    18    19 1   
    36    18    37 1   
    37    18    38 1   
    38    19    20 1   
    39    19    21 1   
    40    27    41 1   
    41    28    41 1   
    42    32    42 1   
    43    39    40 1   
@<TRIPOS>SUBSTRUCTURE
     1 CH6         1 TEMP              0 ****  ****    0 ROOT
