@<TRIPOS>MOLECULE
CH7
   40    42     1     0     0
SMALL
abcg2


@<TRIPOS>ATOM
      1 NZ           1.8650     1.1360     1.9590 n2         1 CH7      -0.576900
      2 CA1          1.9800     0.7670     0.7530 ce         1 CH7       0.432000
      3 CB           3.0260     1.2020    -0.2320 c6         1 CH7      -0.160700
      4 CG           4.1610     1.9510     0.4490 c6         1 CH7      -0.072400
      5 CD           3.5820     2.9040     1.4840 c6         1 CH7      -0.108400
      6 CE           2.7810     2.1140     2.5070 c6         1 CH7       0.114800
      7 C1           1.0080    -0.2320     0.2640 cc         1 CH7       0.486600
      8 N2           1.3380    -1.1610    -0.5710 nd         1 CH7      -0.674300
      9 CD2          2.3530    -3.3320    -2.4890 ca         1 CH7      -0.053000
     10 CE2          3.2230    -4.0550    -3.2800 ca         1 CH7      -0.189000
     11 CZ           2.7850    -5.2010    -3.9470 ca         1 CH7       0.128100
     12 CE1          1.4580    -5.6100    -3.8110 ca         1 CH7      -0.189000
     13 CD1          0.5970    -4.8790    -3.0180 ca         1 CH7      -0.053000
     14 CG2          1.0160    -3.7280    -2.3360 ca         1 CH7      -0.071800
     15 CA2          0.1990    -1.9290    -0.7570 cd         1 CH7       0.034400
     16 C2          -0.8990    -1.3470     0.0460 c          1 CH7       0.529200
     17 O2          -2.0680    -1.6730     0.1280 o          1 CH7      -0.528000
     18 N3          -0.2960    -0.2990     0.7040 n          1 CH7      -0.281300
     19 CA3         -1.0180     0.7610     1.3630 c3         1 CH7      -0.057000
     20 C3          -0.9530     2.0940     0.5850 c          1 CH7       0.711000
     21 O3          -0.3620     2.0860    -0.5090 o          1 CH7      -0.722500
     22 OXT         -1.5220     3.0480     1.1440 o          1 CH7      -0.722500
     23 HB1          3.3890     0.3280    -0.7740 hc         1 CH7       0.080700
     24 HB2A         2.5300     1.8350    -0.9740 hc         1 CH7       0.080700
     25 HG1          4.8320     1.2410     0.9420 hc         1 CH7       0.031700
     26 HG2          4.7580     2.4860    -0.2920 hc         1 CH7       0.031700
     27 HD1A         4.3660     3.4680     1.9910 hc         1 CH7       0.048700
     28 HD2A         2.9330     3.6320     0.9880 hc         1 CH7       0.048700
     29 HE1A         3.4560     1.5810     3.1860 h1         1 CH7       0.053200
     30 HE2A         2.1960     2.7830     3.1420 h1         1 CH7       0.053200
     31 HOH          4.4800    -5.5670    -4.7420 ho         1 CH7       0.459000
     32 HD2          2.7110    -2.4480    -1.9810 ha         1 CH7       0.132000
     33 HE2          4.2520    -3.7290    -3.3810 ha         1 CH7       0.111000
     34 HE1          1.1110    -6.4970    -4.3250 ha         1 CH7       0.111000
     35 HD1         -0.4310    -5.2070    -2.9210 ha         1 CH7       0.132000
     36 HB2         -0.9470    -3.4640    -1.5090 ha         1 CH7       0.182000
     37 HA31        -0.6420     0.9030     2.3750 h1         1 CH7       0.059200
     38 HA32        -2.0580     0.4400     1.4470 h1         1 CH7       0.059200
     39 CB2          0.0490    -3.0320    -1.5180 ce         1 CH7      -0.108200
     40 OH           3.5910    -5.9390    -4.7230 oh         1 CH7      -0.543100
@<TRIPOS>BOND
     1     1     2 2   
     2     1     6 1   
     3     2     3 1   
     4     2     7 1   
     5     3     4 1   
     6     3    23 1   
     7     3    24 1   
     8     4     5 1   
     9     4    25 1   
    10     4    26 1   
    11     5     6 1   
    12     5    27 1   
    13     5    28 1   
    14     6    29 1   
    15     6    30 1   
    16     7     8 2   
    17     7    18 1   
    18     8    15 1   
    19     9    10 ar  
    20     9    14 ar  
    21     9    32 1   
    22    10    11 ar  
    23    10    33 1   
    24    11    12 ar  
    25    11    40 1   
    26    12    13 ar  
    27    12    34 1   
    28    13    14 ar  
    29    13    35 1   
    30    14    39 1   
    31    15    16 1   
    32    15    39 2   
    33    16    17 2   
    34    16    18 1   
    35    18    19 1   
    36    19    20 1   
    37    19    37 1   
    38    19    38 1   
    39    20    21 1   
    40    20    22 1   
    41    31    40 1   
    42    36    39 1   
@<TRIPOS>SUBSTRUCTURE
     1 CH7         1 TEMP              0 ****  ****    0 ROOT
