@<TRIPOS>MOLECULE
CH7
   40    42     1     0     0
SMALL
No Charge or Current Charge


@<TRIPOS>ATOM
      1 NZ           1.6390     1.6990     1.6430 n2         1 CH7      -0.576900
      2 CA1          1.9500     0.7900     0.7500 ce         1 CH7       0.432000
      3 CB           3.3840     0.6790     0.1690 c6         1 CH7      -0.160700
      4 CG           4.4550     1.4430     0.9770 c6         1 CH7      -0.072400
      5 CD           3.9030     2.8230     1.3610 c6         1 CH7      -0.108400
      6 CE           2.6260     2.6470     2.2060 c6         1 CH7       0.114800
      7 C1           0.9580    -0.2260     0.2450 cc         1 CH7       0.486600
      8 N2           1.2940    -1.2300    -0.5930 nd         1 CH7      -0.674300
      9 CD2          2.0230    -3.0050    -3.0760 ca         1 CH7      -0.053000
     10 CE2          2.9360    -3.6780    -3.9080 ca         1 CH7      -0.189000
     11 CZ           2.8140    -5.0610    -4.1110 ca         1 CH7       0.128100
     12 CE1          1.7790    -5.7710    -3.4890 ca         1 CH7      -0.189000
     13 CD1          0.8640    -5.1000    -2.6570 ca         1 CH7      -0.053000
     14 CG2          0.9840    -3.7130    -2.4350 ca         1 CH7      -0.071800
     15 CA2          0.0940    -1.9090    -0.7590 cd         1 CH7       0.034400
     16 C2          -1.0220    -1.3130    -0.0030 c          1 CH7       0.529200
     17 O2          -2.1990    -1.6510     0.0690 o          1 CH7      -0.528000
     18 N3          -0.3990    -0.2520     0.6120 n          1 CH7      -0.281300
     19 CA3         -1.1650     0.7300     1.4410 c3         1 CH7      -0.057000
     20 C3          -1.3980     2.1120     0.7870 c          1 CH7       0.711000
     21 O3          -1.1530     2.2520    -0.4040 o          1 CH7      -0.722500
     22 OXT         -1.8650     3.0010     1.4860 o          1 CH7      -0.722500
     23 HB1          3.6850    -0.3730     0.0830 hc         1 CH7       0.080700
     24 HB2A         3.3630     1.0740    -0.8560 hc         1 CH7       0.080700
     25 HG1          4.7140     0.8800     1.8850 hc         1 CH7       0.031700
     26 HG2          5.3780     1.5450     0.3890 hc         1 CH7       0.031700
     27 HD1A         4.6520     3.3950     1.9250 hc         1 CH7       0.048700
     28 HD2A         3.6760     3.4030     0.4550 hc         1 CH7       0.048700
     29 HE1A         2.9080     2.2850     3.2060 h1         1 CH7       0.053200
     30 HE2A         2.1400     3.6240     2.3410 h1         1 CH7       0.053200
     31 HOH          4.3420    -5.0660    -5.2610 ho         1 CH7       0.459000
     32 HD2          2.1210    -1.9310    -2.9450 ha         1 CH7       0.132000
     33 HE2          3.7310    -3.1170    -4.3940 ha         1 CH7       0.111000
     34 HE1          1.6810    -6.8420    -3.6490 ha         1 CH7       0.111000
     35 HD1          0.0640    -5.6620    -2.1780 ha         1 CH7       0.132000
     36 HB2         -1.0000    -3.5000    -1.5450 ha         1 CH7       0.182000
     37 HA31        -0.6550     0.8780     2.4000 h1         1 CH7       0.059200
     38 HA32        -2.1540     0.3180     1.6710 h1         1 CH7       0.059200
     39 CB2         -0.0150    -3.0320    -1.5550 ce         1 CH7      -0.108200
     40 OH           3.6950    -5.7170    -4.9160 oh         1 CH7      -0.543100
@<TRIPOS>BOND
     1     1     2 2   
     2     1     6 1   
     3     2     3 1   
     4     2     7 1   
     5     3     4 1   
     6     3    23 1   
     7     3    24 1   
     8     4     5 1   
     9     4    25 1   
    10     4    26 1   
    11     5     6 1   
    12     5    27 1   
    13     5    28 1   
    14     6    29 1   
    15     6    30 1   
    16     7     8 2   
    17     7    18 1   
    18     8    15 1   
    19     9    10 ar  
    20     9    14 ar  
    21     9    32 1   
    22    10    11 ar  
    23    10    33 1   
    24    11    12 ar  
    25    11    40 1   
    26    12    13 ar  
    27    12    34 1   
    28    13    14 ar  
    29    13    35 1   
    30    14    39 1   
    31    15    16 1   
    32    15    39 2   
    33    16    17 2   
    34    16    18 1   
    35    18    19 1   
    36    19    20 1   
    37    19    37 1   
    38    19    38 1   
    39    20    21 1   
    40    20    22 1   
    41    31    40 1   
    42    36    39 1   
@<TRIPOS>SUBSTRUCTURE
     1 CH7         1 TEMP              0 ****  ****    0 ROOT
