@<TRIPOS>MOLECULE
CH8
   24    25     1     0     0
SMALL
bcc


@<TRIPOS>ATOM
      1 CAF         -2.1220     0.4460    -0.7760 ca         1 CH8      -0.169000
      2 CAD         -3.3340     0.9420    -1.2410 ca         1 CH8      -0.099000
      3 CAC         -4.5080     0.7290    -0.5340 ca         1 CH8      -0.152000
      4 CAE         -4.4650     0.0080     0.6540 ca         1 CH8      -0.099000
      5 CAG         -3.2640    -0.4900     1.1340 ca         1 CH8      -0.169000
      6 CAN         -2.0960    -0.2690     0.4140 ca         1 CH8       0.115100
      7 OAK         -0.9520    -0.8150     0.9380 os         1 CH8      -0.263200
      8 CAO          0.2630    -0.3590     0.4950 ca         1 CH8      -0.001900
      9 CAI          0.7400     0.8910     0.8480 ca         1 CH8      -0.093000
     10 CAH          1.9860     1.3160     0.4150 ca         1 CH8      -0.153000
     11 CAL          2.7380     0.4590    -0.3750 ca         1 CH8       0.062400
     12 CL1          4.3000     0.9670    -0.9280 cl         1 CH8      -0.101400
     13 CAJ          2.2820    -0.7970    -0.7320 ca         1 CH8      -0.159000
     14 CAM          1.0270    -1.2150    -0.3000 ca         1 CH8       0.154100
     15 OAA          0.5980    -2.4310    -0.6660 oh         1 CH8      -0.485100
     16 HAF         -1.2180     0.6210    -1.3450 ha         1 CH8       0.146500
     17 HAD         -3.3510     1.4990    -2.1690 ha         1 CH8       0.134000
     18 HAC         -5.4470     1.1180    -0.9030 ha         1 CH8       0.135000
     19 HAE         -5.3730    -0.1650     1.2170 ha         1 CH8       0.134000
     20 HAG         -3.2300    -1.0490     2.0610 ha         1 CH8       0.146500
     21 HAI          0.1350     1.5390     1.4690 ha         1 CH8       0.151000
     22 HAJ          2.8800    -1.4550    -1.3490 ha         1 CH8       0.166000
     23 HAA         -0.2460    -2.6360    -0.2440 ho         1 CH8       0.447000
     24 HAH          2.3580     2.2920     0.6900 ha         1 CH8       0.154000
@<TRIPOS>BOND
     1     1     2 ar  
     2     1     6 ar  
     3     1    16 1   
     4     2     3 ar  
     5     2    17 1   
     6     3     4 ar  
     7     3    18 1   
     8     4     5 ar  
     9     4    19 1   
    10     5     6 ar  
    11     5    20 1   
    12     6     7 1   
    13     7     8 1   
    14     8     9 ar  
    15     8    14 ar  
    16     9    10 ar  
    17     9    21 1   
    18    10    11 ar  
    19    10    24 1   
    20    11    12 1   
    21    11    13 ar  
    22    13    14 ar  
    23    13    22 1   
    24    14    15 1   
    25    15    23 1   
@<TRIPOS>SUBSTRUCTURE
     1 CH8         1 TEMP              0 ****  ****    0 ROOT
