@<TRIPOS>MOLECULE
CH8
   24    25     1     0     0
SMALL
No Charge or Current Charge


@<TRIPOS>ATOM
      1 CAF         -2.2910     0.4470    -0.9350 ca         1 CH8      -0.151000
      2 CAD         -3.4940     1.1360    -1.1740 ca         1 CH8      -0.081000
      3 CAC         -4.5730     0.9950    -0.2840 ca         1 CH8      -0.134000
      4 CAE         -4.4540     0.1620     0.8420 ca         1 CH8      -0.081000
      5 CAG         -3.2510    -0.5270     1.0810 ca         1 CH8      -0.151000
      6 CAN         -2.1670    -0.3770     0.2010 ca         1 CH8       0.115100
      7 OAK         -1.0050    -1.0740     0.4510 os         1 CH8      -0.263200
      8 CAO          0.2510    -0.5470     0.2240 ca         1 CH8      -0.001900
      9 CAI          0.5270     0.8090     0.4960 ca         1 CH8      -0.075000
     10 CAH          1.8180     1.3190     0.2700 ca         1 CH8      -0.135000
     11 CAL          2.8320     0.4780    -0.2190 ca         1 CH8       0.154000
     12 Cl1          4.4440     1.1200    -0.5000 cl         1 CH8      -0.193000
     13 CAJ          2.5630    -0.8750    -0.4790 ca         1 CH8      -0.141000
     14 CAM          1.2760    -1.3880    -0.2540 ca         1 CH8       0.154100
     15 OAA          1.0190    -2.7050    -0.5040 oh         1 CH8      -0.524100
     16 HAF         -1.4630     0.5500    -1.6310 ha         1 CH8       0.128500
     17 HAD         -3.5900     1.7750    -2.0490 ha         1 CH8       0.116000
     18 HAC         -5.5030     1.5270    -0.4700 ha         1 CH8       0.117000
     19 HAE         -5.2920     0.0490     1.5280 ha         1 CH8       0.116000
     20 HAG         -3.1570    -1.1730     1.9510 ha         1 CH8       0.128500
     21 HAI         -0.2500     1.4630     0.8860 ha         1 CH8       0.133000
     22 HAJ          3.3500    -1.5240    -0.8520 ha         1 CH8       0.148000
     23 HAA          0.0750    -2.8600    -0.2790 ho         1 CH8       0.486000
     24 HAH          2.0350     2.3650     0.4750 ha         1 CH8       0.136000
@<TRIPOS>BOND
     1     1     2 ar  
     2     1     6 ar  
     3     1    16 1   
     4     2     3 ar  
     5     2    17 1   
     6     3     4 ar  
     7     3    18 1   
     8     4     5 ar  
     9     4    19 1   
    10     5     6 ar  
    11     5    20 1   
    12     6     7 1   
    13     7     8 1   
    14     8     9 ar  
    15     8    14 ar  
    16     9    10 ar  
    17     9    21 1   
    18    10    11 ar  
    19    10    24 1   
    20    11    12 1   
    21    11    13 ar  
    22    13    14 ar  
    23    13    22 1   
    24    14    15 1   
    25    15    23 1   
@<TRIPOS>SUBSTRUCTURE
     1 CH8         1 TEMP              0 ****  ****    0 ROOT
