@<TRIPOS>MOLECULE
CH9
   23    24     1     0     0
SMALL
abcg2


@<TRIPOS>ATOM
      1 CAH         -1.5150    -1.0690    -0.7530 ca         1 CH9      -0.105500
      2 CAC         -2.9020    -1.0320    -0.7620 ca         1 CH9      -0.109000
      3 CAB         -3.5790    -0.0750    -0.0170 ca         1 CH9      -0.107000
      4 CAD         -2.8610     0.8390     0.7420 ca         1 CH9      -0.109000
      5 CAI         -1.4730     0.8000     0.7550 ca         1 CH9      -0.105500
      6 CAL         -0.7820    -0.1550     0.0050 cp         1 CH9      -0.045000
      7 CAM          0.6970    -0.2170     0.0250 cp         1 CH9      -0.134000
      8 CAJ          1.3460    -1.3890     0.4110 ca         1 CH9      -0.059000
      9 CAF          2.7290    -1.4780     0.4400 ca         1 CH9      -0.151000
     10 CAE          3.4860    -0.3740     0.0710 ca         1 CH9      -0.070000
     11 CAG          2.8660     0.7980    -0.3280 ca         1 CH9      -0.150000
     12 CAK          1.4760     0.8830    -0.3570 ca         1 CH9       0.155100
     13 OAA          0.9410     2.0470    -0.7800 oh         1 CH9      -0.539100
     14 HAH         -0.9930    -1.8120    -1.3450 ha         1 CH9       0.119000
     15 HAC         -3.4540    -1.7490    -1.3560 ha         1 CH9       0.115000
     16 HAB         -4.6610    -0.0430    -0.0250 ha         1 CH9       0.114000
     17 HAD         -3.3830     1.5820     1.3310 ha         1 CH9       0.115000
     18 HAI         -0.9270     1.4980     1.3780 ha         1 CH9       0.119000
     19 HAJ          0.7470    -2.2410     0.7090 ha         1 CH9       0.115000
     20 HAF          3.2080    -2.3960     0.7530 ha         1 CH9       0.116000
     21 HAE          4.5670    -0.4220     0.0890 ha         1 CH9       0.114000
     22 HAG          3.4540     1.6560    -0.6300 ha         1 CH9       0.128000
     23 HAA         -0.0180     1.9770    -0.8550 ho         1 CH9       0.474000
@<TRIPOS>BOND
     1     1     2 ar  
     2     1     6 ar  
     3     1    14 1   
     4     2     3 ar  
     5     2    15 1   
     6     3     4 ar  
     7     3    16 1   
     8     4     5 ar  
     9     4    17 1   
    10     5     6 ar  
    11     5    18 1   
    12     6     7 1   
    13     7     8 ar  
    14     7    12 ar  
    15     8     9 ar  
    16     8    19 1   
    17     9    10 ar  
    18     9    20 1   
    19    10    11 ar  
    20    10    21 1   
    21    11    12 ar  
    22    11    22 1   
    23    12    13 1   
    24    13    23 1   
@<TRIPOS>SUBSTRUCTURE
     1 CH9         1 TEMP              0 ****  ****    0 ROOT
