@<TRIPOS>MOLECULE
CH9
   23    24     1     0     0
SMALL
No Charge or Current Charge


@<TRIPOS>ATOM
      1 CAH         -1.5370    -1.1150    -0.7160 ca         1 CH9      -0.105500
      2 CAC         -2.9420    -1.0740    -0.7310 ca         1 CH9      -0.109000
      3 CAB         -3.6230    -0.0700    -0.0220 ca         1 CH9      -0.107000
      4 CAD         -2.8980     0.8880     0.7050 ca         1 CH9      -0.109000
      5 CAI         -1.4930     0.8460     0.7180 ca         1 CH9      -0.105500
      6 CAL         -0.7870    -0.1510    -0.0000 cp         1 CH9      -0.045000
      7 CAM          0.7060    -0.2080     0.0130 cp         1 CH9      -0.134000
      8 CAJ          1.3600    -1.4160     0.3610 ca         1 CH9      -0.059000
      9 CAF          2.7630    -1.4970     0.3920 ca         1 CH9      -0.151000
     10 CAE          3.5400    -0.3730     0.0710 ca         1 CH9      -0.070000
     11 CAG          2.9100     0.8300    -0.2880 ca         1 CH9      -0.150000
     12 CAK          1.5090     0.9150    -0.3220 ca         1 CH9       0.155100
     13 OAA          0.9390     2.0890    -0.7160 oh         1 CH9      -0.539100
     14 HAH         -1.0210    -1.8960    -1.2710 ha         1 CH9       0.119000
     15 HAC         -3.5030    -1.8200    -1.2910 ha         1 CH9       0.115000
     16 HAB         -4.7100    -0.0380    -0.0320 ha         1 CH9       0.114000
     17 HAD         -3.4240     1.6600     1.2620 ha         1 CH9       0.115000
     18 HAI         -0.9450     1.5820     1.3030 ha         1 CH9       0.119000
     19 HAJ          0.7710    -2.2930     0.6200 ha         1 CH9       0.115000
     20 HAF          3.2470    -2.4320     0.6680 ha         1 CH9       0.116000
     21 HAE          4.6260    -0.4350     0.0940 ha         1 CH9       0.114000
     22 HAG          3.5110     1.6970    -0.5490 ha         1 CH9       0.128000
     23 HAA         -0.0290     1.9390    -0.7670 ho         1 CH9       0.474000
@<TRIPOS>BOND
     1     1     2 ar  
     2     1     6 ar  
     3     1    14 1   
     4     2     3 ar  
     5     2    15 1   
     6     3     4 ar  
     7     3    16 1   
     8     4     5 ar  
     9     4    17 1   
    10     5     6 ar  
    11     5    18 1   
    12     6     7 1   
    13     7     8 ar  
    14     7    12 ar  
    15     8     9 ar  
    16     8    19 1   
    17     9    10 ar  
    18     9    20 1   
    19    10    11 ar  
    20    10    21 1   
    21    11    12 ar  
    22    11    22 1   
    23    12    13 1   
    24    13    23 1   
@<TRIPOS>SUBSTRUCTURE
     1 CH9         1 TEMP              0 ****  ****    0 ROOT
