@<TRIPOS>MOLECULE
CHA
   30    30     1     0     0
SMALL
abcg2


@<TRIPOS>ATOM
      1 C1           0.5710    -0.4990     3.1440 c3         1 CHA       0.171600
      2 C2          -0.0910     0.0130     1.8760 c3         1 CHA       0.158500
      3 C3           0.7930    -0.3540     0.6760 c3         1 CHA      -0.116400
      4 C7           0.2910     0.1260    -0.6840 c6         1 CHA      -0.059700
      5 C8           1.3220    -0.1800    -1.7710 c6         1 CHA      -0.072400
      6 C9           0.8640     0.2850    -3.1490 c6         1 CHA      -0.072900
      7 C4          -0.4900    -0.3130    -3.5150 c6         1 CHA      -0.075400
      8 C5          -1.5300    -0.0150    -2.4400 c6         1 CHA      -0.072900
      9 C6          -1.0620    -0.4780    -1.0630 c6         1 CHA      -0.072400
     10 N2          -0.3870     1.4320     2.0080 n8         1 CHA      -0.977200
     11 O1          -0.2910    -0.3340     4.2460 oh         1 CHA      -0.639000
     12 H11          0.8340    -1.5550     2.9970 h1         1 CHA       0.011700
     13 H12          1.5190     0.0410     3.2920 h1         1 CHA       0.011700
     14 H2          -1.0500    -0.5070     1.7740 h1         1 CHA       0.071700
     15 H31          1.7960     0.0570     0.8440 hc         1 CHA       0.042200
     16 H32          0.9130    -1.4430     0.6420 hc         1 CHA       0.042200
     17 H1           0.1740     1.2170    -0.6430 hc         1 CHA       0.039700
     18 H2'1         2.2780     0.2860    -1.5130 hc         1 CHA       0.039700
     19 H2'2         1.5030    -1.2620    -1.7940 hc         1 CHA       0.039700
     20 H3'1         0.7880     1.3780    -3.1550 hc         1 CHA       0.038950
     21 H3'2         1.6110     0.0230    -3.9020 hc         1 CHA       0.038950
     22 H4'1        -0.8250     0.0690    -4.4820 hc         1 CHA       0.038700
     23 H4'2        -0.3880    -1.3990    -3.6290 hc         1 CHA       0.038700
     24 H5'1        -1.7210     1.0630    -2.4130 hc         1 CHA       0.038950
     25 H5'2        -2.4810    -0.4910    -2.6920 hc         1 CHA       0.038950
     26 H6'1        -0.9760    -1.5720    -1.0580 hc         1 CHA       0.039700
     27 H6'2        -1.8200    -0.2280    -0.3160 hc         1 CHA       0.039700
     28 HN21         0.4780     1.9630     1.9990 hn         1 CHA       0.390000
     29 HN22        -0.9090     1.7510     1.2010 hn         1 CHA       0.390000
     30 HO1          0.1450    -0.7040     5.0190 ho         1 CHA       0.436000
@<TRIPOS>BOND
     1     1     2 1   
     2     1    11 1   
     3     1    12 1   
     4     1    13 1   
     5     2     3 1   
     6     2    10 1   
     7     2    14 1   
     8     3     4 1   
     9     3    15 1   
    10     3    16 1   
    11     4     5 1   
    12     4     9 1   
    13     4    17 1   
    14     5     6 1   
    15     5    18 1   
    16     5    19 1   
    17     6     7 1   
    18     6    20 1   
    19     6    21 1   
    20     7     8 1   
    21     7    22 1   
    22     7    23 1   
    23     8     9 1   
    24     8    24 1   
    25     8    25 1   
    26     9    26 1   
    27     9    27 1   
    28    10    28 1   
    29    10    29 1   
    30    11    30 1   
@<TRIPOS>SUBSTRUCTURE
     1 CHA         1 TEMP              0 ****  ****    0 ROOT
