@<TRIPOS>MOLECULE
CHA
   30    30     1     0     0
SMALL
No Charge or Current Charge


@<TRIPOS>ATOM
      1 C1           0.5190    -0.5740     3.2310 c3         1 CHA       0.171600
      2 C2          -0.0810     0.0380     1.9210 c3         1 CHA       0.158500
      3 C3           0.8110    -0.2770     0.6900 c3         1 CHA      -0.116400
      4 C7           0.2790     0.1680    -0.7130 c6         1 CHA      -0.059700
      5 C8           1.3340    -0.1340    -1.8160 c6         1 CHA      -0.072400
      6 C9           0.8410     0.3020    -3.2180 c6         1 CHA      -0.072900
      7 C4          -0.5100    -0.3660    -3.5670 c6         1 CHA      -0.075400
      8 C5          -1.5720    -0.0690    -2.4820 c6         1 CHA      -0.072900
      9 C6          -1.0810    -0.5000    -1.0780 c6         1 CHA      -0.072400
     10 N2          -0.2990     1.5060     2.0270 n8         1 CHA      -0.977200
     11 O1          -0.3690    -0.4110     4.3500 oh         1 CHA      -0.639000
     12 H11          0.7090    -1.6430     3.0670 h1         1 CHA       0.011700
     13 H12          1.4850    -0.0980     3.4430 h1         1 CHA       0.011700
     14 H2          -1.0590    -0.4400     1.7620 h1         1 CHA       0.071700
     15 H31          1.7980     0.1730     0.8600 hc         1 CHA       0.042200
     16 H32          0.9850    -1.3610     0.6700 hc         1 CHA       0.042200
     17 H1           0.1360     1.2570    -0.6770 hc         1 CHA       0.039700
     18 H2'1         2.2760     0.3820    -1.5860 hc         1 CHA       0.039700
     19 H2'2         1.5650    -1.2090    -1.8280 hc         1 CHA       0.039700
     20 H3'1         0.7330     1.3950    -3.2500 hc         1 CHA       0.038950
     21 H3'2         1.5920     0.0400    -3.9750 hc         1 CHA       0.038950
     22 H4'1        -0.8630    -0.0080    -4.5440 hc         1 CHA       0.038700
     23 H4'2        -0.3730    -1.4530    -3.6640 hc         1 CHA       0.038700
     24 H5'1        -1.8060     1.0050    -2.4780 hc         1 CHA       0.038950
     25 H5'2        -2.5080    -0.5900    -2.7250 hc         1 CHA       0.038950
     26 H6'1        -0.9800    -1.5940    -1.0430 hc         1 CHA       0.039700
     27 H6'2        -1.8490    -0.2340    -0.3400 hc         1 CHA       0.039700
     28 HN21         0.5990     1.9590     2.2230 hn         1 CHA       0.390000
     29 HN22        -0.5550     1.8630     1.1010 hn         1 CHA       0.390000
     30 HO1          0.1030    -0.7560     5.1390 ho         1 CHA       0.436000
@<TRIPOS>BOND
     1     1     2 1   
     2     1    11 1   
     3     1    12 1   
     4     1    13 1   
     5     2     3 1   
     6     2    10 1   
     7     2    14 1   
     8     3     4 1   
     9     3    15 1   
    10     3    16 1   
    11     4     5 1   
    12     4     9 1   
    13     4    17 1   
    14     5     6 1   
    15     5    18 1   
    16     5    19 1   
    17     6     7 1   
    18     6    20 1   
    19     6    21 1   
    20     7     8 1   
    21     7    22 1   
    22     7    23 1   
    23     8     9 1   
    24     8    24 1   
    25     8    25 1   
    26     9    26 1   
    27     9    27 1   
    28    10    28 1   
    29    10    29 1   
    30    11    30 1   
@<TRIPOS>SUBSTRUCTURE
     1 CHA         1 TEMP              0 ****  ****    0 ROOT
