@<TRIPOS>MOLECULE
CHB
   15    15     1     0     0
SMALL
No Charge or Current Charge


@<TRIPOS>ATOM
      1 C1          -0.2150     0.0020     1.2640 ca         1 CHB      -0.158600
      2 C2           0.6850     0.0950     0.1750 ca         1 CHB      -0.041000
      3 C3           0.2060     0.1560    -1.1460 ca         1 CHB       0.007000
      4 Cl3          1.3540     0.2720    -2.4810 cl         1 CHB      -0.269000
      5 C4          -1.1790     0.1250    -1.3970 ca         1 CHB       0.113100
      6 O4          -1.6520     0.1830    -2.6760 oh         1 CHB      -0.552100
      7 C5          -2.0790     0.0330    -0.3270 ca         1 CHB      -0.173000
      8 C6          -1.6040    -0.0280     0.9950 ca         1 CHB      -0.051000
      9 C7           0.3020    -0.0630     2.6890 c          1 CHB       0.716600
     10 O1          -0.5070    -0.1430     3.6020 o          1 CHB      -0.718500
     11 O2           1.5110    -0.0340     2.8730 o          1 CHB      -0.718500
     12 H2           1.7580     0.1210     0.3470 ha         1 CHB       0.144000
     13 HO4         -0.8740     0.2440    -3.2740 ho         1 CHB       0.461000
     14 H5          -3.1490     0.0090    -0.5180 ha         1 CHB       0.106000
     15 H6          -2.3210    -0.0990     1.8110 ha         1 CHB       0.133000
@<TRIPOS>BOND
     1     1     2 ar  
     2     1     8 ar  
     3     1     9 1   
     4     2     3 ar  
     5     2    12 1   
     6     3     4 1   
     7     3     5 ar  
     8     5     6 1   
     9     5     7 ar  
    10     6    13 1   
    11     7     8 ar  
    12     7    14 1   
    13     8    15 1   
    14     9    10 1   
    15     9    11 1   
@<TRIPOS>SUBSTRUCTURE
     1 CHB         1 TEMP              0 ****  ****    0 ROOT
