@<TRIPOS>MOLECULE
CHB
   15    15     1     0     0
SMALL
bcc


@<TRIPOS>ATOM
      1 C1          -0.2120     0.0020     1.2560 ca         1 CHB      -0.158600
      2 C2           0.6750     0.0930     0.1900 ca         1 CHB      -0.059000
      3 C3           0.2070     0.1540    -1.1100 ca         1 CHB      -0.084600
      4 CL3          1.3320     0.2720    -2.4330 cl         1 CHB      -0.177400
      5 C4          -1.1580     0.1240    -1.3990 ca         1 CHB       0.113100
      6 O4          -1.6570     0.1780    -2.6420 oh         1 CHB      -0.513100
      7 C5          -2.0450     0.0310    -0.3290 ca         1 CHB      -0.191000
      8 C6          -1.5760    -0.0280     0.9710 ca         1 CHB      -0.069000
      9 C7           0.3000    -0.0620     2.6860 c          1 CHB       0.927200
     10 O1          -0.5620    -0.1260     3.5830 o          1 CHB      -0.823800
     11 O2           1.5370    -0.0430     2.8370 o          1 CHB      -0.823800
     12 H2           1.7410     0.1170     0.3750 ha         1 CHB       0.162000
     13 HO4         -0.9510     0.2520    -3.2980 ho         1 CHB       0.422000
     14 H5          -3.1090     0.0070    -0.5330 ha         1 CHB       0.124000
     15 H6          -2.2870    -0.0970     1.7830 ha         1 CHB       0.151000
@<TRIPOS>BOND
     1     1     2 ar  
     2     1     8 ar  
     3     1     9 1   
     4     2     3 ar  
     5     2    12 1   
     6     3     4 1   
     7     3     5 ar  
     8     5     6 1   
     9     5     7 ar  
    10     6    13 1   
    11     7     8 ar  
    12     7    14 1   
    13     8    15 1   
    14     9    10 1   
    15     9    11 1   
@<TRIPOS>SUBSTRUCTURE
     1 CHB         1 TEMP              0 ****  ****    0 ROOT
