@<TRIPOS>MOLECULE
CHC
   73    76     1     0     0
SMALL
No Charge or Current Charge


@<TRIPOS>ATOM
      1 C1          -2.3460     0.7150     3.8610 c6         1 CHC      -0.064400
      2 C2          -2.6280    -0.7800     4.1290 c6         1 CHC      -0.110400
      3 C3          -1.5460    -1.3610     5.0620 c6         1 CHC       0.171300
      4 O3          -1.7950    -2.7500     5.2920 oh         1 CHC      -0.660000
      5 C4          -0.1440    -1.1670     4.4450 c6         1 CHC      -0.074400
      6 C5           0.1690     0.3390     4.1220 c6         1 CHC      -0.034700
      7 C6           1.6090     0.5590     3.5220 c6         1 CHC      -0.091700
      8 C7           1.7470     0.0660     2.0450 c6         1 CHC       0.182300
      9 O7           1.8220    -1.3650     1.9740 oh         1 CHC      -0.654000
     10 C8           0.6160     0.6470     1.1310 c6         1 CHC      -0.034700
     11 C9          -0.8220     0.4200     1.7340 c6         1 CHC      -0.043700
     12 C10         -0.9430     1.0000     3.2110 c6         1 CHC      -0.033000
     13 C11         -1.9250     0.9550     0.7550 c6         1 CHC      -0.070400
     14 C12         -1.7800     0.4080    -0.6950 c6         1 CHC      -0.060400
     15 C13         -0.3720     0.7030    -1.3060 c5         1 CHC      -0.042000
     16 C14          0.6800     0.0880    -0.3250 c5         1 CHC      -0.062700
     17 C15          2.0080     0.2720    -1.1000 c5         1 CHC      -0.071400
     18 C16          1.5980    -0.0420    -2.5720 c5         1 CHC      -0.075400
     19 C17          0.0240    -0.1460    -2.5840 c5         1 CHC      -0.047700
     20 C18         -0.2380     2.2480    -1.5520 c3         1 CHC      -0.075100
     21 C19         -0.7890     2.5670     3.2300 c3         1 CHC      -0.085100
     22 C20         -0.6050     0.2050    -3.9850 c3         1 CHC      -0.057700
     23 C21         -2.1560     0.2440    -3.9820 c3         1 CHC      -0.080100
     24 C22         -0.0690    -0.7530    -5.1010 c3         1 CHC      -0.058400
     25 C23         -0.4570    -0.3860    -6.5610 c3         1 CHC      -0.205400
     26 C24          0.3700    -1.2210    -7.5560 c          1 CHC       0.715000
     27 C26          2.7720     0.0290     4.4650 c3         1 CHC      -0.078400
     28 OT1         -0.0670    -2.3100    -7.8980 o          1 CHC      -0.743500
     29 OT2          1.4470    -0.7790    -7.9270 o          1 CHC      -0.743500
     30 HC11        -2.4110     1.2440     4.8230 hc         1 CHC       0.036700
     31 HC12        -3.1580     1.1400     3.2570 hc         1 CHC       0.036700
     32 HC21        -3.6170    -0.8850     4.5950 hc         1 CHC       0.047200
     33 HC22        -2.6690    -1.3410     3.1860 hc         1 CHC       0.047200
     34 HC3         -1.5820    -0.8180     6.0180 h1         1 CHC       0.017700
     35 HO3         -2.6800    -2.8090     5.7120 ho         1 CHC       0.435000
     36 HC41         0.5960    -1.5610     5.1520 hc         1 CHC       0.060700
     37 HC42        -0.0730    -1.7910     3.5480 hc         1 CHC       0.060700
     38 HC5          0.1490     0.8620     5.0890 hc         1 CHC       0.031700
     39 HC6          1.7850     1.6410     3.5010 hc         1 CHC       0.049700
     40 HC7          2.6950     0.4720     1.6630 h1         1 CHC       0.028700
     41 HO7          2.5380    -1.6310     2.5860 ho         1 CHC       0.435000
     42 HC8          0.8010     1.7240     1.0600 hc         1 CHC       0.045700
     43 HC9         -0.9680    -0.6660     1.7810 hc         1 CHC       0.062700
     44 H111        -1.9280     2.0510     0.7310 hc         1 CHC       0.030700
     45 H112        -2.9190     0.6610     1.1150 hc         1 CHC       0.030700
     46 H121        -2.5810     0.8450    -1.3000 hc         1 CHC       0.042200
     47 H122        -1.9620    -0.6760    -0.6880 hc         1 CHC       0.042200
     48 H14C         0.4850    -0.9870    -0.2100 hc         1 CHC       0.062700
     49 H151         2.4020     1.2890    -0.9990 hc         1 CHC       0.032200
     50 H152         2.7900    -0.4070    -0.7410 hc         1 CHC       0.032200
     51 H161         1.9610     0.7460    -3.2420 hc         1 CHC       0.051700
     52 H162         2.0560    -0.9770    -2.9160 hc         1 CHC       0.051700
     53 H17C        -0.2580    -1.1920    -2.4080 hc         1 CHC       0.043700
     54 H181        -1.0540     2.6160    -2.1850 hc         1 CHC       0.027700
     55 H182        -0.2710     2.8270    -0.6230 hc         1 CHC       0.027700
     56 H183         0.6940     2.5180    -2.0590 hc         1 CHC       0.027700
     57 H191        -0.7620     2.9470     4.2580 hc         1 CHC       0.031367
     58 H192         0.1210     2.9280     2.7420 hc         1 CHC       0.031367
     59 H193        -1.6330     3.0640     2.7380 hc         1 CHC       0.031367
     60 H20C        -0.2720     1.2140    -4.2570 hc         1 CHC       0.035700
     61 H211        -2.5730    -0.6680    -3.5400 hc         1 CHC       0.023700
     62 H212        -2.5200     1.1120    -3.4250 hc         1 CHC       0.023700
     63 H213        -2.5670     0.3530    -4.9910 hc         1 CHC       0.023700
     64 H221         1.0260    -0.7720    -5.0580 hc         1 CHC       0.041200
     65 H222        -0.4000    -1.7770    -4.8860 hc         1 CHC       0.041200
     66 H231        -1.5200    -0.6270    -6.6720 hc         1 CHC       0.015700
     67 H232        -0.2270     0.6800    -6.6770 hc         1 CHC       0.015700
     68 H251         4.9380     0.0200     4.8630 hc         1 CHC       0.032700
     69 H252         4.5340    -0.0310     3.1340 hc         1 CHC       0.032700
     70 H253         4.3670     1.4900     4.0420 hc         1 CHC       0.032700
     71 H261         2.7270    -1.0630     4.5460 hc         1 CHC       0.037200
     72 H262         2.5900     0.4020     5.4810 hc         1 CHC       0.037200
     73 C25          4.2480     0.4010     4.1000 c3         1 CHC      -0.093100
@<TRIPOS>BOND
     1     1     2 1   
     2     1    12 1   
     3     1    30 1   
     4     1    31 1   
     5     2     3 1   
     6     2    32 1   
     7     2    33 1   
     8     3     4 1   
     9     3     5 1   
    10     3    34 1   
    11     4    35 1   
    12     5     6 1   
    13     5    36 1   
    14     5    37 1   
    15     6     7 1   
    16     6    12 1   
    17     6    38 1   
    18     7     8 1   
    19     7    27 1   
    20     7    39 1   
    21     8     9 1   
    22     8    10 1   
    23     8    40 1   
    24     9    41 1   
    25    10    11 1   
    26    10    16 1   
    27    10    42 1   
    28    11    12 1   
    29    11    13 1   
    30    11    43 1   
    31    12    21 1   
    32    13    14 1   
    33    13    44 1   
    34    13    45 1   
    35    14    15 1   
    36    14    46 1   
    37    14    47 1   
    38    15    16 1   
    39    15    19 1   
    40    15    20 1   
    41    16    17 1   
    42    16    48 1   
    43    17    18 1   
    44    17    49 1   
    45    17    50 1   
    46    18    19 1   
    47    18    51 1   
    48    18    52 1   
    49    19    22 1   
    50    19    53 1   
    51    20    54 1   
    52    20    55 1   
    53    20    56 1   
    54    21    57 1   
    55    21    58 1   
    56    21    59 1   
    57    22    23 1   
    58    22    24 1   
    59    22    60 1   
    60    23    61 1   
    61    23    62 1   
    62    23    63 1   
    63    24    25 1   
    64    24    64 1   
    65    24    65 1   
    66    25    26 1   
    67    25    66 1   
    68    25    67 1   
    69    26    28 1   
    70    26    29 1   
    71    27    71 1   
    72    27    72 1   
    73    27    73 1   
    74    68    73 1   
    75    69    73 1   
    76    70    73 1   
@<TRIPOS>SUBSTRUCTURE
     1 CHC         1 TEMP              0 ****  ****    0 ROOT
