@<TRIPOS>MOLECULE
CHC
   73    76     1     0     0
SMALL
abcg2


@<TRIPOS>ATOM
      1 C1          -2.2960     0.7030     3.7920 c6         1 CHC      -0.064400
      2 C2          -2.5450    -0.7510     4.1600 c6         1 CHC      -0.110400
      3 C3          -1.4590    -1.2210     5.1140 c6         1 CHC       0.171300
      4 O3          -1.6000    -2.5830     5.4760 oh         1 CHC      -0.660000
      5 C4          -0.0930    -1.0490     4.4740 c6         1 CHC      -0.074400
      6 C5           0.1770     0.4020     4.0500 c6         1 CHC      -0.034700
      7 C6           1.5750     0.6110     3.4400 c6         1 CHC      -0.091700
      8 C7           1.7080     0.0410     2.0230 c6         1 CHC       0.182300
      9 O7           1.7340    -1.3740     1.9860 oh         1 CHC      -0.654000
     10 C8           0.5820     0.5390     1.1200 c6         1 CHC      -0.034700
     11 C9          -0.8160     0.3190     1.7300 c6         1 CHC      -0.043700
     12 C10         -0.9320     0.9740     3.1300 c6         1 CHC      -0.033000
     13 C11         -1.9190     0.7610     0.7600 c6         1 CHC      -0.070400
     14 C12         -1.7740     0.1940    -0.6530 c6         1 CHC      -0.060400
     15 C13         -0.4020     0.5050    -1.2510 c5         1 CHC      -0.042000
     16 C14          0.6400    -0.0720    -0.2730 c5         1 CHC      -0.062700
     17 C15          1.9500     0.0130    -1.0420 c5         1 CHC      -0.071400
     18 C16          1.5350    -0.2710    -2.4990 c5         1 CHC      -0.075400
     19 C17         -0.0170    -0.2610    -2.5420 c5         1 CHC      -0.047700
     20 C18         -0.2290     2.0110    -1.4730 c3         1 CHC      -0.075100
     21 C19         -0.8050     2.5030     3.0530 c3         1 CHC      -0.085100
     22 C20         -0.5600     0.2360    -3.8910 c3         1 CHC      -0.057700
     23 C21         -2.0850     0.2870    -3.9320 c3         1 CHC      -0.080100
     24 C22         -0.0120    -0.6350    -5.0310 c3         1 CHC      -0.058400
     25 C23         -0.3540    -0.1470    -6.4310 c3         1 CHC      -0.205400
     26 C24          0.3510    -0.8850    -7.5850 c          1 CHC       0.715000
     27 C26          2.7020     0.1650     4.3790 c3         1 CHC      -0.078400
     28 OT1         -0.0190    -0.5740    -8.7380 o          1 CHC      -0.743500
     29 OT2          1.2340    -1.7180    -7.2990 o          1 CHC      -0.743500
     30 HC11        -2.3370     1.3020     4.7100 hc         1 CHC       0.036700
     31 HC12        -3.1040     1.0820     3.1630 hc         1 CHC       0.036700
     32 HC21        -3.5310    -0.8490     4.6260 hc         1 CHC       0.047200
     33 HC22        -2.5520    -1.3870     3.2690 hc         1 CHC       0.047200
     34 HC3         -1.5040    -0.5850     6.0130 h1         1 CHC       0.017700
     35 HO3         -2.4530    -2.6880     5.9070 ho         1 CHC       0.435000
     36 HC41         0.6700    -1.3600     5.1940 hc         1 CHC       0.060700
     37 HC42        -0.0150    -1.7260     3.6230 hc         1 CHC       0.060700
     38 HC5          0.1530     1.0040     4.9700 hc         1 CHC       0.031700
     39 HC6          1.7010     1.6940     3.3220 hc         1 CHC       0.049700
     40 HC7          2.6490     0.4280     1.6020 h1         1 CHC       0.028700
     41 HO7          2.4280    -1.6820     2.5750 ho         1 CHC       0.435000
     42 HC8          0.7560     1.6160     1.0190 hc         1 CHC       0.045700
     43 HC9         -0.9370    -0.7640     1.8600 hc         1 CHC       0.062700
     44 H111        -1.9560     1.8530     0.7050 hc         1 CHC       0.030700
     45 H112        -2.8920     0.4520     1.1510 hc         1 CHC       0.030700
     46 H121        -2.5900     0.5850    -1.2640 hc         1 CHC       0.042200
     47 H122        -1.9030    -0.8950    -0.6240 hc         1 CHC       0.042200
     48 H14C         0.3900    -1.1370    -0.1710 hc         1 CHC       0.062700
     49 H151         2.3890     1.0100    -0.9450 hc         1 CHC       0.032200
     50 H152         2.6960    -0.6930    -0.6740 hc         1 CHC       0.032200
     51 H161         1.9420     0.4870    -3.1740 hc         1 CHC       0.051700
     52 H162         1.9310    -1.2270    -2.8430 hc         1 CHC       0.051700
     53 H17C        -0.3720    -1.2930    -2.4090 hc         1 CHC       0.043700
     54 H181        -1.0210     2.4010    -2.1160 hc         1 CHC       0.027700
     55 H182        -0.2660     2.5860    -0.5480 hc         1 CHC       0.027700
     56 H183         0.7200     2.2490    -1.9580 hc         1 CHC       0.027700
     57 H191        -0.7350     2.9190     4.0610 hc         1 CHC       0.031367
     58 H192         0.0670     2.8490     2.5010 hc         1 CHC       0.031367
     59 H193        -1.6830     2.9510     2.5850 hc         1 CHC       0.031367
     60 H20C        -0.1820     1.2560    -4.0490 hc         1 CHC       0.035700
     61 H211        -2.5200    -0.6790    -3.6640 hc         1 CHC       0.023700
     62 H212        -2.4920     1.0320    -3.2500 hc         1 CHC       0.023700
     63 H213        -2.4500     0.5460    -4.9260 hc         1 CHC       0.023700
     64 H221         1.0740    -0.6910    -4.9520 hc         1 CHC       0.041200
     65 H222        -0.3730    -1.6620    -4.8950 hc         1 CHC       0.041200
     66 H231        -1.4310    -0.1970    -6.6150 hc         1 CHC       0.015700
     67 H232        -0.1040     0.9190    -6.5150 hc         1 CHC       0.015700
     68 H251         4.8350     0.3710     4.7010 hc         1 CHC       0.032700
     69 H252         4.4060     0.1880     3.0100 hc         1 CHC       0.032700
     70 H253         4.1160     1.7200     3.8260 hc         1 CHC       0.032700
     71 H261         2.7160    -0.9230     4.4990 hc         1 CHC       0.037200
     72 H262         2.4860     0.5550     5.3770 hc         1 CHC       0.037200
     73 C25          4.0880     0.6360     3.9520 c3         1 CHC      -0.093100
@<TRIPOS>BOND
     1     1     2 1   
     2     1    12 1   
     3     1    30 1   
     4     1    31 1   
     5     2     3 1   
     6     2    32 1   
     7     2    33 1   
     8     3     4 1   
     9     3     5 1   
    10     3    34 1   
    11     4    35 1   
    12     5     6 1   
    13     5    36 1   
    14     5    37 1   
    15     6     7 1   
    16     6    12 1   
    17     6    38 1   
    18     7     8 1   
    19     7    27 1   
    20     7    39 1   
    21     8     9 1   
    22     8    10 1   
    23     8    40 1   
    24     9    41 1   
    25    10    11 1   
    26    10    16 1   
    27    10    42 1   
    28    11    12 1   
    29    11    13 1   
    30    11    43 1   
    31    12    21 1   
    32    13    14 1   
    33    13    44 1   
    34    13    45 1   
    35    14    15 1   
    36    14    46 1   
    37    14    47 1   
    38    15    16 1   
    39    15    19 1   
    40    15    20 1   
    41    16    17 1   
    42    16    48 1   
    43    17    18 1   
    44    17    49 1   
    45    17    50 1   
    46    18    19 1   
    47    18    51 1   
    48    18    52 1   
    49    19    22 1   
    50    19    53 1   
    51    20    54 1   
    52    20    55 1   
    53    20    56 1   
    54    21    57 1   
    55    21    58 1   
    56    21    59 1   
    57    22    23 1   
    58    22    24 1   
    59    22    60 1   
    60    23    61 1   
    61    23    62 1   
    62    23    63 1   
    63    24    25 1   
    64    24    64 1   
    65    24    65 1   
    66    25    26 1   
    67    25    66 1   
    68    25    67 1   
    69    26    28 1   
    70    26    29 1   
    71    27    71 1   
    72    27    72 1   
    73    27    73 1   
    74    68    73 1   
    75    69    73 1   
    76    70    73 1   
@<TRIPOS>SUBSTRUCTURE
     1 CHC         1 TEMP              0 ****  ****    0 ROOT
