@<TRIPOS>MOLECULE
CHD
   68    71     1     0     0
SMALL
No Charge or Current Charge


@<TRIPOS>ATOM
      1 C1           1.8000     0.6810    -4.3300 c6         1 CHD      -0.064400
      2 C2           1.9570    -0.8270    -4.6420 c6         1 CHD      -0.110400
      3 C3           0.7750    -1.3190    -5.5040 c6         1 CHD       0.171300
      4 O3           0.9120    -2.7170    -5.7690 oh         1 CHD      -0.658000
      5 C4          -0.5620    -1.0430    -4.7820 c6         1 CHD      -0.075400
      6 C5          -0.7380     0.4720    -4.4240 c6         1 CHD      -0.039700
      7 C6          -2.1120     0.7500    -3.7340 c6         1 CHD      -0.105400
      8 C7          -2.2000     0.2720    -2.2570 c6         1 CHD       0.177300
      9 O7          -2.3770    -1.1500    -2.1940 oh         1 CHD      -0.649000
     10 C8          -0.9780     0.7640    -1.4100 c6         1 CHD      -0.033700
     11 C9           0.4020     0.4530    -2.1050 c6         1 CHD      -0.038700
     12 C10          0.4660     1.0470    -3.5820 c6         1 CHD      -0.034000
     13 C11          1.6000     0.9050    -1.1920 c6         1 CHD      -0.110400
     14 C12          1.5320     0.3500     0.2630 c6         1 CHD       0.185300
     15 O12          1.7730    -1.0650     0.2370 oh         1 CHD      -0.648000
     16 C13          0.1670     0.7150     0.9590 c5         1 CHD      -0.033000
     17 C14         -0.9920     0.1920     0.0430 c5         1 CHD      -0.062700
     18 C15         -2.2520     0.4720     0.8990 c5         1 CHD      -0.071400
     19 C16         -1.7820     0.1340     2.3470 c5         1 CHD      -0.077400
     20 C17         -0.2230    -0.0970     2.2670 c5         1 CHD      -0.044700
     21 C18          0.1570     2.2650     1.2180 c3         1 CHD      -0.082100
     22 C19          0.3990     2.6190    -3.5760 c3         1 CHD      -0.085100
     23 C20          0.5150     0.2110     3.6260 c3         1 CHD      -0.056700
     24 C21          2.0610     0.1110     3.5340 c3         1 CHD      -0.079100
     25 C22         -0.0340    -0.6810     4.7880 c3         1 CHD      -0.058400
     26 C23          0.4750    -0.3300     6.2150 c3         1 CHD      -0.206400
     27 O25         -1.3630    -0.5500     7.7030 o          1 CHD      -0.744000
     28 C24         -0.3510    -1.0830     7.2740 c          1 CHD       0.716000
     29 O26          0.0160    -2.1990     7.6060 o          1 CHD      -0.744000
     30 H11          2.6780     1.0380    -3.7780 hc         1 CHD       0.036200
     31 H12A         1.8360     1.2230    -5.2860 hc         1 CHD       0.036200
     32 H21          2.0260    -1.4070    -3.7120 hc         1 CHD       0.046700
     33 H22          2.9020    -0.9890    -5.1790 hc         1 CHD       0.046700
     34 H3           0.7780    -0.7630    -6.4530 h1         1 CHD       0.018700
     35 HO3          1.7580    -2.8280    -6.2540 ho         1 CHD       0.436000
     36 H41         -0.6050    -1.6740    -3.8880 hc         1 CHD       0.060700
     37 H42         -1.3920    -1.3670    -5.4240 hc         1 CHD       0.060700
     38 H5          -0.7580     1.0070    -5.3840 hc         1 CHD       0.032700
     39 H61         -2.9230     0.2980    -4.3210 hc         1 CHD       0.038700
     40 H62         -2.3170     1.8280    -3.7620 hc         1 CHD       0.038700
     41 H7          -3.0980     0.7400    -1.8270 h1         1 CHD       0.028700
     42 HO7         -3.1950    -1.3510    -2.6950 ho         1 CHD       0.431000
     43 H8          -1.0860     1.8500    -1.3190 hc         1 CHD       0.042700
     44 H9           0.4720    -0.6390    -2.1760 hc         1 CHD       0.069700
     45 H111         2.5520     0.5780    -1.6290 hc         1 CHD       0.034700
     46 H112         1.6620     1.9980    -1.1540 hc         1 CHD       0.034700
     47 H12          2.3490     0.8340     0.8120 h1         1 CHD       0.033700
     48 HO12         2.6360    -1.1920    -0.2090 ho         1 CHD       0.429000
     49 H14         -0.8920    -0.8930    -0.0910 hc         1 CHD       0.080700
     50 H151        -3.1030    -0.1470     0.5920 hc         1 CHD       0.031200
     51 H152        -2.5780     1.5160     0.8160 hc         1 CHD       0.031200
     52 H161        -2.2920    -0.7590     2.7270 hc         1 CHD       0.051200
     53 H162        -2.0400     0.9510     3.0310 hc         1 CHD       0.051200
     54 H17         -0.0470    -1.1660     2.0930 hc         1 CHD       0.064700
     55 H181         0.1660     2.8500     0.2930 hc         1 CHD       0.030033
     56 H182        -0.7170     2.5960     1.7880 hc         1 CHD       0.030033
     57 H183         1.0370     2.5710     1.7960 hc         1 CHD       0.030033
     58 H191         0.3600     3.0140    -4.5980 hc         1 CHD       0.031033
     59 H192        -0.4770     3.0180    -3.0570 hc         1 CHD       0.031033
     60 H193         1.2840     3.0630    -3.1070 hc         1 CHD       0.031033
     61 H20          0.2900     1.2490     3.8990 hc         1 CHD       0.031700
     62 H211         2.3700    -0.8630     3.1380 hc         1 CHD       0.023033
     63 H212         2.4660     0.9000     2.8960 hc         1 CHD       0.023033
     64 H213         2.5370     0.2500     4.5090 hc         1 CHD       0.023033
     65 H221        -1.1260    -0.6040     4.8120 hc         1 CHD       0.042200
     66 H222         0.1930    -1.7340     4.5760 hc         1 CHD       0.042200
     67 H231         1.5210    -0.6560     6.2630 hc         1 CHD       0.014700
     68 H232         0.3400     0.7530     6.3270 hc         1 CHD       0.014700
@<TRIPOS>BOND
     1     1     2 1   
     2     1    12 1   
     3     1    30 1   
     4     1    31 1   
     5     2     3 1   
     6     2    32 1   
     7     2    33 1   
     8     3     4 1   
     9     3     5 1   
    10     3    34 1   
    11     4    35 1   
    12     5     6 1   
    13     5    36 1   
    14     5    37 1   
    15     6     7 1   
    16     6    12 1   
    17     6    38 1   
    18     7     8 1   
    19     7    39 1   
    20     7    40 1   
    21     8     9 1   
    22     8    10 1   
    23     8    41 1   
    24     9    42 1   
    25    10    11 1   
    26    10    17 1   
    27    10    43 1   
    28    11    12 1   
    29    11    13 1   
    30    11    44 1   
    31    12    22 1   
    32    13    14 1   
    33    13    45 1   
    34    13    46 1   
    35    14    15 1   
    36    14    16 1   
    37    14    47 1   
    38    15    48 1   
    39    16    17 1   
    40    16    20 1   
    41    16    21 1   
    42    17    18 1   
    43    17    49 1   
    44    18    19 1   
    45    18    50 1   
    46    18    51 1   
    47    19    20 1   
    48    19    52 1   
    49    19    53 1   
    50    20    23 1   
    51    20    54 1   
    52    21    55 1   
    53    21    56 1   
    54    21    57 1   
    55    22    58 1   
    56    22    59 1   
    57    22    60 1   
    58    23    24 1   
    59    23    25 1   
    60    23    61 1   
    61    24    62 1   
    62    24    63 1   
    63    24    64 1   
    64    25    26 1   
    65    25    65 1   
    66    25    66 1   
    67    26    28 1   
    68    26    67 1   
    69    26    68 1   
    70    27    28 1   
    71    28    29 1   
@<TRIPOS>SUBSTRUCTURE
     1 CHD         1 TEMP              0 ****  ****    0 ROOT
