@<TRIPOS>MOLECULE
CHD
   68    71     1     0     0
SMALL
bcc


@<TRIPOS>ATOM
      1 C1           1.7830     0.6390    -4.2410 c6         1 CHD      -0.064400
      2 C2           1.8510    -0.8220    -4.6640 c6         1 CHD      -0.110400
      3 C3           0.6600    -1.1530    -5.5500 c6         1 CHD       0.148100
      4 O3           0.6490    -2.5050    -5.9680 oh         1 CHD      -0.595800
      5 C4          -0.6250    -0.8800    -4.7910 c6         1 CHD      -0.075400
      6 C5          -0.7170     0.5820    -4.3360 c6         1 CHD      -0.039700
      7 C6          -2.0380     0.8860    -3.6300 c6         1 CHD      -0.105400
      8 C7          -2.1460     0.3270    -2.2150 c6         1 CHD       0.154100
      9 O7          -2.2950    -1.0820    -2.1900 oh         1 CHD      -0.586800
     10 C8          -0.9270     0.7120    -1.3810 c6         1 CHD      -0.033700
     11 C9           0.4110     0.3970    -2.0810 c6         1 CHD      -0.038700
     12 C10          0.4980     1.0370    -3.4910 c6         1 CHD      -0.034000
     13 C11          1.5800     0.7920    -1.1730 c6         1 CHD      -0.110400
     14 C12          1.5300     0.2000     0.2410 c6         1 CHD       0.162100
     15 O12          1.6900    -1.2050     0.2190 oh         1 CHD      -0.585800
     16 C13          0.2000     0.5440     0.9240 c5         1 CHD      -0.033000
     17 C14         -0.9450     0.0780     0.0030 c5         1 CHD      -0.062700
     18 C15         -2.1890     0.2710     0.8580 c5         1 CHD      -0.071400
     19 C16         -1.7120    -0.0720     2.2820 c5         1 CHD      -0.077400
     20 C17         -0.1670    -0.2100     2.2310 c5         1 CHD      -0.044700
     21 C18          0.1600     2.0550     1.1870 c3         1 CHD      -0.082100
     22 C19          0.5170     2.5710    -3.4040 c3         1 CHD      -0.085100
     23 C20          0.4970     0.2210     3.5480 c3         1 CHD      -0.056700
     24 C21          2.0180     0.1010     3.5080 c3         1 CHD      -0.079100
     25 C22         -0.0790    -0.5880     4.7190 c3         1 CHD      -0.058400
     26 C23          0.3850    -0.1290     6.0930 c3         1 CHD      -0.206400
     27 O25         -1.3210    -1.5020     7.0690 o          1 CHD      -0.849300
     28 C24         -0.3500    -0.7530     7.2950 c          1 CHD       0.926600
     29 O26          0.0900    -0.4410     8.4220 o          1 CHD      -0.849300
     30 H11          2.6640     0.9070    -3.6540 hc         1 CHD       0.036200
     31 H12A         1.8360     1.2550    -5.1460 hc         1 CHD       0.036200
     32 H21          1.8490    -1.4880    -3.7950 hc         1 CHD       0.046700
     33 H22          2.7880    -1.0020    -5.2000 hc         1 CHD       0.046700
     34 H3           0.6930    -0.4830    -6.4260 h1         1 CHD       0.018700
     35 HO3          1.4580    -2.6690    -6.4620 ho         1 CHD       0.397000
     36 H41         -0.6820    -1.5650    -3.9430 hc         1 CHD       0.060700
     37 H42         -1.4850    -1.0980    -5.4330 hc         1 CHD       0.060700
     38 H5          -0.7000     1.1880    -5.2530 hc         1 CHD       0.032700
     39 H61         -2.8770     0.5250    -4.2360 hc         1 CHD       0.038700
     40 H62         -2.1720     1.9710    -3.5700 hc         1 CHD       0.038700
     41 H7          -3.0270     0.7910    -1.7460 h1         1 CHD       0.028700
     42 HO7         -3.0040    -1.3160    -2.7960 ho         1 CHD       0.392000
     43 H8          -1.0060     1.7990    -1.2550 hc         1 CHD       0.042700
     44 H9           0.4600    -0.6910    -2.2080 hc         1 CHD       0.069700
     45 H111         2.5310     0.4900    -1.6230 hc         1 CHD       0.034700
     46 H112         1.6390     1.8800    -1.0850 hc         1 CHD       0.034700
     47 H12          2.3570     0.6580     0.8000 h1         1 CHD       0.033700
     48 HO12         2.4580    -1.4070    -0.3240 ho         1 CHD       0.390000
     49 H14         -0.8050    -1.0010    -0.1310 hc         1 CHD       0.080700
     50 H151        -3.0210    -0.3570     0.5320 hc         1 CHD       0.031200
     51 H152        -2.5390     1.3060     0.8010 hc         1 CHD       0.031200
     52 H161        -2.1750    -0.9920     2.6420 hc         1 CHD       0.051200
     53 H162        -2.0030     0.7100     2.9890 hc         1 CHD       0.051200
     54 H17          0.0740    -1.2680     2.0780 hc         1 CHD       0.064700
     55 H181         0.1530     2.6510     0.2750 hc         1 CHD       0.030033
     56 H182        -0.7190     2.3470     1.7630 hc         1 CHD       0.030033
     57 H183         1.0350     2.3710     1.7600 hc         1 CHD       0.030033
     58 H191         0.3550     3.0030    -4.3940 hc         1 CHD       0.031033
     59 H192        -0.2440     2.9850    -2.7430 hc         1 CHD       0.031033
     60 H193         1.4830     2.9360    -3.0510 hc         1 CHD       0.031033
     61 H20          0.2400     1.2750     3.7240 hc         1 CHD       0.031700
     62 H211         2.3220    -0.9150     3.2440 hc         1 CHD       0.023033
     63 H212         2.4690     0.7760     2.7830 hc         1 CHD       0.023033
     64 H213         2.4660     0.3380     4.4740 hc         1 CHD       0.023033
     65 H221        -1.1670    -0.5320     4.6980 hc         1 CHD       0.042200
     66 H222         0.1680    -1.6470     4.5740 hc         1 CHD       0.042200
     67 H231         1.4550    -0.3120     6.2300 hc         1 CHD       0.014700
     68 H232         0.2750     0.9610     6.1650 hc         1 CHD       0.014700
@<TRIPOS>BOND
     1     1     2 1   
     2     1    12 1   
     3     1    30 1   
     4     1    31 1   
     5     2     3 1   
     6     2    32 1   
     7     2    33 1   
     8     3     4 1   
     9     3     5 1   
    10     3    34 1   
    11     4    35 1   
    12     5     6 1   
    13     5    36 1   
    14     5    37 1   
    15     6     7 1   
    16     6    12 1   
    17     6    38 1   
    18     7     8 1   
    19     7    39 1   
    20     7    40 1   
    21     8     9 1   
    22     8    10 1   
    23     8    41 1   
    24     9    42 1   
    25    10    11 1   
    26    10    17 1   
    27    10    43 1   
    28    11    12 1   
    29    11    13 1   
    30    11    44 1   
    31    12    22 1   
    32    13    14 1   
    33    13    45 1   
    34    13    46 1   
    35    14    15 1   
    36    14    16 1   
    37    14    47 1   
    38    15    48 1   
    39    16    17 1   
    40    16    20 1   
    41    16    21 1   
    42    17    18 1   
    43    17    49 1   
    44    18    19 1   
    45    18    50 1   
    46    18    51 1   
    47    19    20 1   
    48    19    52 1   
    49    19    53 1   
    50    20    23 1   
    51    20    54 1   
    52    21    55 1   
    53    21    56 1   
    54    21    57 1   
    55    22    58 1   
    56    22    59 1   
    57    22    60 1   
    58    23    24 1   
    59    23    25 1   
    60    23    61 1   
    61    24    62 1   
    62    24    63 1   
    63    24    64 1   
    64    25    26 1   
    65    25    65 1   
    66    25    66 1   
    67    26    28 1   
    68    26    67 1   
    69    26    68 1   
    70    27    28 1   
    71    28    29 1   
@<TRIPOS>SUBSTRUCTURE
     1 CHD         1 TEMP              0 ****  ****    0 ROOT
