@<TRIPOS>MOLECULE
CHF
   36    36     1     0     0
SMALL
bcc


@<TRIPOS>ATOM
      1 N            0.1290     1.8290    -0.1420 n8         1 CHF      -0.921800
      2 CA           0.0230     0.3720    -0.1100 c3         1 CHF       0.097500
      3 CB           0.8260    -0.2410    -1.2570 c3         1 CHF      -0.077400
      4 CG           0.3900     0.1830    -2.6620 c6         1 CHF      -0.065700
      5 CD1          1.2520    -0.5340    -3.7030 c6         1 CHF      -0.073400
      6 CD2         -1.0930    -0.0820    -2.9310 c6         1 CHF      -0.073400
      7 CE1          0.8600    -0.1640    -5.1300 c6         1 CHF      -0.073400
      8 CE2         -1.4890     0.2810    -4.3590 c6         1 CHF      -0.073400
      9 CZ          -0.6190    -0.4360    -5.3850 c6         1 CHF      -0.073400
     10 CH           0.5830    -0.0930     1.2860 c3         1 CHF       0.342600
     11 OH1          1.1460    -1.3680     1.2480 oh         1 CHF      -0.577800
     12 OH2          1.5980     0.7630     1.6570 oh         1 CHF      -0.577800
     13 CM          -0.5140    -0.0800     2.3770 c3         1 CHF       0.201600
     14 F1          -1.1760     1.1130     2.3310 f          1 CHF      -0.271800
     15 F2          -1.4580    -1.0250     2.0480 f          1 CHF      -0.271800
     16 C            0.0100    -0.3470     3.8110 c          1 CHF       0.942600
     17 O            0.2000     0.6550     4.5120 o          1 CHF      -0.788800
     18 OXT          0.1900    -1.5420     4.0860 o          1 CHF      -0.788800
     19 H           -0.7030     2.2750     0.2180 hn         1 CHF       0.353800
     20 H2           0.2610     2.1730    -1.0830 hn         1 CHF       0.353800
     21 HA          -1.0150     0.0380    -0.2100 h1         1 CHF       0.039700
     22 HB2          1.8870    -0.0020    -1.1310 hc         1 CHF       0.057700
     23 HB3          0.7470    -1.3290    -1.1980 hc         1 CHF       0.057700
     24 HG           0.5680     1.2600    -2.7940 hc         1 CHF       0.035700
     25 HD12         2.3070    -0.3040    -3.5310 hc         1 CHF       0.041950
     26 HD13         1.1460    -1.6170    -3.5670 hc         1 CHF       0.041950
     27 HD23        -1.3030    -1.1430    -2.7490 hc         1 CHF       0.041950
     28 HD22        -1.7150     0.4810    -2.2300 hc         1 CHF       0.041950
     29 HE12         1.0680     0.8980    -5.2990 hc         1 CHF       0.032450
     30 HE13         1.4770    -0.7160    -5.8430 hc         1 CHF       0.032450
     31 HE23        -1.3910     1.3640    -4.4950 hc         1 CHF       0.032450
     32 HE22        -2.5440     0.0450    -4.5240 hc         1 CHF       0.032450
     33 HZ2         -0.8930    -0.1280    -6.3970 hc         1 CHF       0.032200
     34 HZ3         -0.8030    -1.5150    -5.3280 hc         1 CHF       0.032200
     35 HH1          0.4540    -2.0370     1.2130 ho         1 CHF       0.432500
     36 HH2          1.4280     1.5670     1.1130 ho         1 CHF       0.432500
@<TRIPOS>BOND
     1     1     2 1   
     2     1    19 1   
     3     1    20 1   
     4     2     3 1   
     5     2    10 1   
     6     2    21 1   
     7     3     4 1   
     8     3    22 1   
     9     3    23 1   
    10     4     5 1   
    11     4     6 1   
    12     4    24 1   
    13     5     7 1   
    14     5    25 1   
    15     5    26 1   
    16     6     8 1   
    17     6    27 1   
    18     6    28 1   
    19     7     9 1   
    20     7    29 1   
    21     7    30 1   
    22     8     9 1   
    23     8    31 1   
    24     8    32 1   
    25     9    33 1   
    26     9    34 1   
    27    10    11 1   
    28    10    12 1   
    29    10    13 1   
    30    11    35 1   
    31    12    36 1   
    32    13    14 1   
    33    13    15 1   
    34    13    16 1   
    35    16    17 1   
    36    16    18 1   
@<TRIPOS>SUBSTRUCTURE
     1 CHF         1 TEMP              0 ****  ****    0 ROOT
