@<TRIPOS>MOLECULE
CHF
   36    36     1     0     0
SMALL
No Charge or Current Charge


@<TRIPOS>ATOM
      1 N            0.2100     1.8520    -0.1920 n8         1 CHF      -0.921800
      2 CA           0.0500     0.3700    -0.0780 c3         1 CHF       0.097500
      3 CB           0.8000    -0.2980    -1.2750 c3         1 CHF      -0.077400
      4 CG           0.3910     0.1540    -2.7170 c6         1 CHF      -0.065700
      5 CD1          1.2800    -0.5520    -3.7820 c6         1 CHF      -0.073400
      6 CD2         -1.1150    -0.1050    -3.0220 c6         1 CHF      -0.073400
      7 CE1          0.9060    -0.1180    -5.2210 c6         1 CHF      -0.073400
      8 CE2         -1.4890     0.3230    -4.4630 c6         1 CHF      -0.073400
      9 CZ          -0.5910    -0.3780    -5.5110 c6         1 CHF      -0.073400
     10 CH           0.5020    -0.1290     1.3610 c3         1 CHF       0.342600
     11 OH1          1.0360    -1.4520     1.3010 oh         1 CHF      -0.577800
     12 OH2          1.5870     0.7140     1.7030 oh         1 CHF      -0.577800
     13 CM          -0.6420    -0.0180     2.4450 c3         1 CHF       0.201600
     14 F1          -1.1450     1.2560     2.4620 f          1 CHF      -0.271800
     15 F2          -1.6920    -0.8110     2.0750 f          1 CHF      -0.271800
     16 C           -0.0830    -0.4570     3.8590 c          1 CHF       0.942600
     17 O           -0.3270     0.2240     4.8560 o          1 CHF      -0.788800
     18 OXT          0.5370    -1.5200     3.9410 o          1 CHF      -0.788800
     19 H           -0.5000     2.3070     0.3950 hn         1 CHF       0.353800
     20 H2          -0.0390     2.1380    -1.1450 hn         1 CHF       0.353800
     21 HA          -1.0180     0.1460    -0.1940 h1         1 CHF       0.039700
     22 HB2          1.8770    -0.1350    -1.1370 hc         1 CHF       0.057700
     23 HB3          0.6520    -1.3830    -1.2120 hc         1 CHF       0.057700
     24 HG           0.5830     1.2330    -2.7880 hc         1 CHF       0.035700
     25 HD12         2.3390    -0.3230    -3.5970 hc         1 CHF       0.041950
     26 HD13         1.1780    -1.6420    -3.6910 hc         1 CHF       0.041950
     27 HD23        -1.3460    -1.1700    -2.8830 hc         1 CHF       0.041950
     28 HD22        -1.7490     0.4460    -2.3160 hc         1 CHF       0.041950
     29 HE12         1.1300     0.9490    -5.3560 hc         1 CHF       0.032450
     30 HE13         1.5250    -0.6620    -5.9470 hc         1 CHF       0.032450
     31 HE23        -1.3890     1.4130    -4.5620 hc         1 CHF       0.032450
     32 HE22        -2.5430     0.0870    -4.6600 hc         1 CHF       0.032450
     33 HZ2         -0.8440    -0.0210    -6.5180 hc         1 CHF       0.032200
     34 HZ3         -0.7880    -1.4590    -5.5030 hc         1 CHF       0.032200
     35 HH1          1.0260    -1.7680     2.2380 ho         1 CHF       0.432500
     36 HH2          1.5240     1.3820     0.9750 ho         1 CHF       0.432500
@<TRIPOS>BOND
     1     1     2 1   
     2     1    19 1   
     3     1    20 1   
     4     2     3 1   
     5     2    10 1   
     6     2    21 1   
     7     3     4 1   
     8     3    22 1   
     9     3    23 1   
    10     4     5 1   
    11     4     6 1   
    12     4    24 1   
    13     5     7 1   
    14     5    25 1   
    15     5    26 1   
    16     6     8 1   
    17     6    27 1   
    18     6    28 1   
    19     7     9 1   
    20     7    29 1   
    21     7    30 1   
    22     8     9 1   
    23     8    31 1   
    24     8    32 1   
    25     9    33 1   
    26     9    34 1   
    27    10    11 1   
    28    10    12 1   
    29    10    13 1   
    30    11    35 1   
    31    12    36 1   
    32    13    14 1   
    33    13    15 1   
    34    13    16 1   
    35    16    17 1   
    36    16    18 1   
@<TRIPOS>SUBSTRUCTURE
     1 CHF         1 TEMP              0 ****  ****    0 ROOT
