@<TRIPOS>MOLECULE
CHG
   25    25     1     0     0
SMALL
bcc


@<TRIPOS>ATOM
      1 N           15.3980   -15.4080    22.0820 n8         1 CHG      -0.890800
      2 CA          15.0910   -16.7710    22.5040 c3         1 CHG       0.016500
      3 C           16.2440   -17.4950    23.2480 c          1 CHG       0.903600
      4 O           15.9330   -18.5430    23.8520 o          1 CHG      -0.840300
      5 C1          14.6220   -17.6280    21.3140 c6         1 CHG      -0.027700
      6 C2          13.3040   -17.1240    20.7280 c6         1 CHG      -0.069400
      7 C3          12.8190   -17.9970    19.5750 c6         1 CHG      -0.072900
      8 C4          13.8790   -18.1090    18.4850 c6         1 CHG      -0.069400
      9 C5          15.1980   -18.6150    19.0570 c6         1 CHG      -0.072900
     10 C6          15.6780   -17.7400    20.2120 c6         1 CHG      -0.069400
     11 OXT         17.3840   -16.9930    23.1700 o          1 CHG      -0.840300
     12 HN          15.3420   -14.8000    22.8890 hn         1 CHG       0.325800
     13 HNA         16.3770   -15.3880    21.8220 hn         1 CHG       0.325800
     14 HA          14.2430   -16.7150    23.1970 h1         1 CHG       0.031700
     15 H1          14.4420   -18.6360    21.7060 hc         1 CHG       0.054700
     16 H2          12.5430   -17.0870    21.5140 hc         1 CHG       0.042200
     17 H2A         13.4330   -16.0960    20.3750 hc         1 CHG       0.042200
     18 H3          12.5820   -18.9990    19.9510 hc         1 CHG       0.022200
     19 H3A         11.8900   -17.5950    19.1610 hc         1 CHG       0.022200
     20 H4          13.5350   -18.7660    17.6810 hc         1 CHG       0.020200
     21 H4A         14.0370   -17.1230    18.0340 hc         1 CHG       0.020200
     22 H5          15.0660   -19.6430    19.4130 hc         1 CHG       0.022200
     23 H5A         15.9600   -18.6560    18.2740 hc         1 CHG       0.022200
     24 H6          15.9090   -16.7400    19.8280 hc         1 CHG       0.042200
     25 H6A         16.6120   -18.1400    20.6150 hc         1 CHG       0.042200
@<TRIPOS>BOND
     1     1     2 1   
     2     1    12 1   
     3     1    13 1   
     4     2     3 1   
     5     2     5 1   
     6     2    14 1   
     7     3     4 1   
     8     3    11 1   
     9     5     6 1   
    10     5    10 1   
    11     5    15 1   
    12     6     7 1   
    13     6    16 1   
    14     6    17 1   
    15     7     8 1   
    16     7    18 1   
    17     7    19 1   
    18     8     9 1   
    19     8    20 1   
    20     8    21 1   
    21     9    10 1   
    22     9    22 1   
    23     9    23 1   
    24    10    24 1   
    25    10    25 1   
@<TRIPOS>SUBSTRUCTURE
     1 CHG         1 TEMP              0 ****  ****    0 ROOT
