@<TRIPOS>MOLECULE
CHG
   25    25     1     0     0
SMALL
No Charge or Current Charge


@<TRIPOS>ATOM
      1 N           15.3750   -15.3310    22.1880 n8         1 CHG      -1.001200
      2 CA          15.1020   -16.7770    22.5330 c3         1 CHG       0.016500
      3 C           16.2410   -17.5260    23.3480 c          1 CHG       0.693000
      4 O           15.9040   -18.3310    24.2050 o          1 CHG      -0.735000
      5 C1          14.6290   -17.6230    21.2970 c6         1 CHG      -0.027700
      6 C2          13.2730   -17.1240    20.7150 c6         1 CHG      -0.069400
      7 C3          12.7910   -18.0220    19.5480 c6         1 CHG      -0.072900
      8 C4          13.8630   -18.1190    18.4350 c6         1 CHG      -0.069400
      9 C5          15.2130   -18.6190    19.0030 c6         1 CHG      -0.072900
     10 C6          15.7010   -17.7240    20.1700 c6         1 CHG      -0.069400
     11 OXT         17.4050   -17.1810    23.1830 o          1 CHG      -0.735000
     12 HN          15.5980   -14.8220    23.0520 hn         1 CHG       0.381000
     13 HNA         16.2590   -15.2920    21.6670 hn         1 CHG       0.381000
     14 HA          14.2430   -16.7520    23.2170 h1         1 CHG       0.031700
     15 H1          14.4600   -18.6370    21.6880 hc         1 CHG       0.054700
     16 H2          12.5080   -17.1100    21.5040 hc         1 CHG       0.042200
     17 H2A         13.3710   -16.0900    20.3590 hc         1 CHG       0.042200
     18 H3          12.5580   -19.0270    19.9250 hc         1 CHG       0.022200
     19 H3A         11.8570   -17.6210    19.1300 hc         1 CHG       0.022200
     20 H4          13.5180   -18.7970    17.6430 hc         1 CHG       0.020200
     21 H4A         14.0000   -17.1350    17.9660 hc         1 CHG       0.020200
     22 H5          15.1070   -19.6560    19.3510 hc         1 CHG       0.022200
     23 H5A         15.9690   -18.6350    18.2050 hc         1 CHG       0.022200
     24 H6          15.9390   -16.7230    19.7840 hc         1 CHG       0.042200
     25 H6A         16.6370   -18.1340    20.5720 hc         1 CHG       0.042200
@<TRIPOS>BOND
     1     1     2 1   
     2     1    12 1   
     3     1    13 1   
     4     2     3 1   
     5     2     5 1   
     6     2    14 1   
     7     3     4 1   
     8     3    11 1   
     9     5     6 1   
    10     5    10 1   
    11     5    15 1   
    12     6     7 1   
    13     6    16 1   
    14     6    17 1   
    15     7     8 1   
    16     7    18 1   
    17     7    19 1   
    18     8     9 1   
    19     8    20 1   
    20     8    21 1   
    21     9    10 1   
    22     9    22 1   
    23     9    23 1   
    24    10    24 1   
    25    10    25 1   
@<TRIPOS>SUBSTRUCTURE
     1 CHG         1 TEMP              0 ****  ****    0 ROOT
