@<TRIPOS>MOLECULE
CHH
   28    27     1     0     0
SMALL
abcg2


@<TRIPOS>ATOM
      1 O7           2.8610     1.2100     0.1570 o          1 CHH      -0.504100
      2 C5           2.8610     0.0140     0.0620 c          1 CHH       0.583100
      3 C6           4.0920    -0.8040     0.1500 c3         1 CHH      -0.204100
      4 C4           1.5670    -0.7570    -0.1220 c3         1 CHH      -0.201400
      5 C3           0.3500     0.1550    -0.0620 c3         1 CHH      -0.091400
      6 C2          -0.8940    -0.7050    -0.0660 c3         1 CHH       0.103600
      7 N1          -2.2150     0.0350    -0.0020 n4         1 CHH      -0.495000
      8 C9          -2.4120     0.8680    -1.2190 c3         1 CHH       0.073233
      9 C10         -3.3030    -0.9770     0.0670 c3         1 CHH       0.073233
     10 C8          -2.2800     0.8970     1.2110 c3         1 CHH       0.073233
     11 H61          4.9710    -0.1830     0.2780 hc         1 CHH       0.075033
     12 H62          4.0250    -1.4640     1.0060 hc         1 CHH       0.075033
     13 H63          4.2130    -1.4460    -0.7280 hc         1 CHH       0.075033
     14 H41          1.6160    -1.2850    -1.0800 hc         1 CHH       0.073200
     15 H42          1.5210    -1.5340     0.6460 hc         1 CHH       0.073200
     16 H31          0.4160     0.7580     0.8450 hc         1 CHH       0.078700
     17 H32          0.3860     0.8400    -0.9100 hc         1 CHH       0.078700
     18 H21         -0.9410    -1.3230    -0.9650 hx         1 CHH       0.090200
     19 H22         -0.8910    -1.3770     0.7950 hx         1 CHH       0.090200
     20 H91         -2.3380     0.2370    -2.1020 hx         1 CHH       0.098033
     21 H92         -3.3960     1.3230    -1.1860 hx         1 CHH       0.098033
     22 H93         -1.6590     1.6460    -1.2650 hx         1 CHH       0.098033
     23 H101        -3.1880    -1.5730     0.9650 hx         1 CHH       0.098033
     24 H102        -4.2680    -0.4770     0.0890 hx         1 CHH       0.098033
     25 H103        -3.2490    -1.6240    -0.8050 hx         1 CHH       0.098033
     26 H81         -1.5440     1.6920     1.1430 hx         1 CHH       0.098033
     27 H82         -3.2740     1.3320     1.2840 hx         1 CHH       0.098033
     28 H83         -2.0820     0.2910     2.0960 hx         1 CHH       0.098033
@<TRIPOS>BOND
     1     1     2 2   
     2     2     3 1   
     3     2     4 1   
     4     3    11 1   
     5     3    12 1   
     6     3    13 1   
     7     4     5 1   
     8     4    14 1   
     9     4    15 1   
    10     5     6 1   
    11     5    16 1   
    12     5    17 1   
    13     6     7 1   
    14     6    18 1   
    15     6    19 1   
    16     7     8 1   
    17     7     9 1   
    18     7    10 1   
    19     8    20 1   
    20     8    21 1   
    21     8    22 1   
    22     9    23 1   
    23     9    24 1   
    24     9    25 1   
    25    10    26 1   
    26    10    27 1   
    27    10    28 1   
@<TRIPOS>SUBSTRUCTURE
     1 CHH         1 TEMP              0 ****  ****    0 ROOT
