@<TRIPOS>MOLECULE
CHH
   28    27     1     0     0
SMALL
No Charge or Current Charge


@<TRIPOS>ATOM
      1 O7           3.3510     0.3900    -1.5580 o          1 CHH      -0.504100
      2 C5           2.9700    -0.2540    -0.5900 c          1 CHH       0.583100
      3 C6           3.7800    -0.3120     0.7010 c3         1 CHH      -0.204100
      4 C4           1.6310    -1.0050    -0.5990 c3         1 CHH      -0.201400
      5 C3           0.4470    -0.0670    -0.2610 c3         1 CHH      -0.091400
      6 C2          -0.9080    -0.8070    -0.2670 c3         1 CHH       0.103600
      7 N1          -2.1700     0.0100     0.0540 n4         1 CHH      -0.495000
      8 C9          -2.3570     1.1390    -0.9720 c3         1 CHH       0.073233
      9 C10         -3.3880    -0.9220    -0.0100 c3         1 CHH       0.073233
     10 C8          -2.0800     0.6090     1.4670 c3         1 CHH       0.073233
     11 H61          4.6890     0.2980     0.6570 hc         1 CHH       0.075033
     12 H62          3.1360    -0.0270     1.5410 hc         1 CHH       0.075033
     13 H63          4.0080    -1.3590     0.9280 hc         1 CHH       0.075033
     14 H41          1.4710    -1.4370    -1.5940 hc         1 CHH       0.073200
     15 H42          1.6570    -1.7960     0.1610 hc         1 CHH       0.073200
     16 H31          0.6110     0.3850     0.7250 hc         1 CHH       0.078700
     17 H32          0.4170     0.7520    -0.9900 hc         1 CHH       0.078700
     18 H21         -1.0530    -1.2520    -1.2540 hx         1 CHH       0.090200
     19 H22         -0.8580    -1.6230     0.4590 hx         1 CHH       0.090200
     20 H91         -2.4100     0.7100    -1.9740 hx         1 CHH       0.098033
     21 H92         -3.2820     1.6760    -0.7520 hx         1 CHH       0.098033
     22 H93         -1.5130     1.8280    -0.9110 hx         1 CHH       0.098033
     23 H101        -3.2680    -1.7240     0.7210 hx         1 CHH       0.098033
     24 H102        -4.2910    -0.3520     0.2160 hx         1 CHH       0.098033
     25 H103        -3.4640    -1.3470    -1.0130 hx         1 CHH       0.098033
     26 H81         -1.2380     1.3020     1.5150 hx         1 CHH       0.098033
     27 H82         -3.0060     1.1450     1.6900 hx         1 CHH       0.098033
     28 H83         -1.9370    -0.1950     2.1910 hx         1 CHH       0.098033
@<TRIPOS>BOND
     1     1     2 2   
     2     2     3 1   
     3     2     4 1   
     4     3    11 1   
     5     3    12 1   
     6     3    13 1   
     7     4     5 1   
     8     4    14 1   
     9     4    15 1   
    10     5     6 1   
    11     5    16 1   
    12     5    17 1   
    13     6     7 1   
    14     6    18 1   
    15     6    19 1   
    16     7     8 1   
    17     7     9 1   
    18     7    10 1   
    19     8    20 1   
    20     8    21 1   
    21     8    22 1   
    22     9    23 1   
    23     9    24 1   
    24     9    25 1   
    25    10    26 1   
    26    10    27 1   
    27    10    28 1   
@<TRIPOS>SUBSTRUCTURE
     1 CHH         1 TEMP              0 ****  ****    0 ROOT
