@<TRIPOS>MOLECULE
CHI
   54    57     1     0     0
SMALL
abcg2


@<TRIPOS>ATOM
      1 CL1         -2.0390    -1.0090    -7.5350 cl         1 CHI      -0.211000
      2 C1          -1.6190    -0.4420    -5.9460 ca         1 CHI       0.086000
      3 C2          -1.5940     0.9450    -5.7220 ca         1 CHI      -0.075000
      4 C3          -1.2780     1.4460    -4.4780 ca         1 CHI      -0.124000
      5 C4          -0.9900     0.5300    -3.4660 ca         1 CHI      -0.035200
      6 N1          -0.6630     0.7350    -2.1610 na         1 CHI      -0.212700
      7 C5          -1.0000    -0.8630    -3.6910 ca         1 CHI      -0.112800
      8 C6          -1.3280    -1.3560    -4.9610 ca         1 CHI      -0.039000
      9 C7          -0.6400    -1.4820    -2.4620 cc         1 CHI      -0.152200
     10 C8          -0.4430    -0.4770    -1.5560 cd         1 CHI      -0.143300
     11 C9          -0.0650    -0.6340    -0.1360 c          1 CHI       0.642300
     12 O1           0.4780    -1.6570     0.2510 o          1 CHI      -0.583100
     13 N2          -0.3700     0.4080     0.6610 ns         1 CHI      -0.501900
     14 C10          0.0280     0.4910     2.0400 c3         1 CHI       0.032700
     15 C11         -1.1800     0.9060     2.8830 c          1 CHI       0.595100
     16 O2          -2.1150     1.4820     2.3410 o          1 CHI      -0.611100
     17 N3          -1.1300     0.6710     4.2050 n          1 CHI      -0.399800
     18 C12         -0.1250    -0.1250     4.8940 c6         1 CHI       0.095000
     19 C13         -0.7220    -1.4380     5.3840 c6         1 CHI      -0.120400
     20 C14         -1.9260    -1.1740     6.2740 c6         1 CHI       0.175300
     21 O3          -2.4750    -2.4180     6.6490 oh         1 CHI      -0.654000
     22 C15         -2.9330    -0.2860     5.5470 c6         1 CHI      -0.120400
     23 C16         -2.2660     0.9940     5.0560 c6         1 CHI       0.095000
     24 C17          1.1650     1.5240     2.2070 c3         1 CHI      -0.040100
     25 C18          2.3540     1.1570     1.3690 ca         1 CHI      -0.099300
     26 C19          2.5330     1.6960     0.0990 ca         1 CHI      -0.076000
     27 C20          3.5990     1.3130    -0.7030 ca         1 CHI      -0.144500
     28 C21          4.4890     0.3790    -0.2130 ca         1 CHI       0.179000
     29 F1           5.5270     0.0020    -0.9790 f          1 CHI      -0.177000
     30 C22          4.3490    -0.1780     1.0440 ca         1 CHI      -0.144500
     31 C23          3.2750     0.2170     1.8260 ca         1 CHI      -0.076000
     32 H21         -1.8270     1.6230    -6.5310 ha         1 CHI       0.128000
     33 H31         -1.2600     2.5130    -4.3010 ha         1 CHI       0.120000
     34 HN1         -0.4720     1.6390    -1.7590 hn         1 CHI       0.351000
     35 H61         -1.3520    -2.4200    -5.1570 ha         1 CHI       0.134000
     36 H7          -0.5600    -2.5390    -2.2610 ha         1 CHI       0.224000
     37 HN2         -0.9790     1.1400     0.3280 hn         1 CHI       0.332500
     38 H101         0.3900    -0.4960     2.3270 h1         1 CHI       0.099700
     39 H121         0.2390     0.4600     5.7440 h1         1 CHI       0.058950
     40 H122         0.7390    -0.3110     4.2630 h1         1 CHI       0.058950
     41 H131         0.0420    -1.9950     5.9320 hc         1 CHI       0.063700
     42 H132        -1.0230    -2.0460     4.5250 hc         1 CHI       0.063700
     43 H14         -1.5750    -0.6250     7.1630 h1         1 CHI       0.025700
     44 HO3         -3.2320    -2.2560     7.2200 ho         1 CHI       0.445000
     45 H151        -3.3510    -0.8290     4.6940 hc         1 CHI       0.063700
     46 H152        -3.7630    -0.0270     6.2110 hc         1 CHI       0.063700
     47 H161        -1.9020     1.5820     5.9040 h1         1 CHI       0.058950
     48 H162        -2.9690     1.6140     4.5090 h1         1 CHI       0.058950
     49 H171         0.7850     2.5090     1.9230 hc         1 CHI       0.058200
     50 H172         1.4490     1.5900     3.2600 hc         1 CHI       0.058200
     51 H191         1.8360     2.4360    -0.2750 ha         1 CHI       0.109500
     52 H201         3.7340     1.7370    -1.6900 ha         1 CHI       0.133500
     53 H221         5.0640    -0.9040     1.4080 ha         1 CHI       0.133500
     54 H231         3.1560    -0.2170     2.8120 ha         1 CHI       0.109500
@<TRIPOS>BOND
     1     1     2 1   
     2     2     3 ar  
     3     2     8 ar  
     4     3     4 ar  
     5     3    32 1   
     6     4     5 ar  
     7     4    33 1   
     8     5     6 1   
     9     5     7 ar  
    10     6    10 1   
    11     6    34 1   
    12     7     8 ar  
    13     7     9 1   
    14     8    35 1   
    15     9    10 2   
    16     9    36 1   
    17    10    11 1   
    18    11    12 2   
    19    11    13 1   
    20    13    14 1   
    21    13    37 1   
    22    14    15 1   
    23    14    24 1   
    24    14    38 1   
    25    15    16 2   
    26    15    17 1   
    27    17    18 1   
    28    17    23 1   
    29    18    19 1   
    30    18    39 1   
    31    18    40 1   
    32    19    20 1   
    33    19    41 1   
    34    19    42 1   
    35    20    21 1   
    36    20    22 1   
    37    20    43 1   
    38    21    44 1   
    39    22    23 1   
    40    22    45 1   
    41    22    46 1   
    42    23    47 1   
    43    23    48 1   
    44    24    25 1   
    45    24    49 1   
    46    24    50 1   
    47    25    26 ar  
    48    25    31 ar  
    49    26    27 ar  
    50    26    51 1   
    51    27    28 ar  
    52    27    52 1   
    53    28    29 1   
    54    28    30 ar  
    55    30    31 ar  
    56    30    53 1   
    57    31    54 1   
@<TRIPOS>SUBSTRUCTURE
     1 CHI         1 TEMP              0 ****  ****    0 ROOT
