@<TRIPOS>MOLECULE
CHI
   54    57     1     0     0
SMALL
No Charge or Current Charge


@<TRIPOS>ATOM
      1 Cl1         -1.4480    -0.7990    -7.9680 cl         1 CHI      -0.211000
      2 C1          -1.4290    -0.3000    -6.2810 ca         1 CHI       0.086000
      3 C2          -2.1430     0.8560    -5.8820 ca         1 CHI      -0.075000
      4 C3          -2.1350     1.2670    -4.5300 ca         1 CHI      -0.124000
      5 C4          -1.4050     0.5000    -3.6110 ca         1 CHI      -0.035200
      6 N1          -1.2610     0.7180    -2.2500 na         1 CHI      -0.212700
      7 C5          -0.7190    -0.6140    -4.0030 ca         1 CHI      -0.112800
      8 C6          -0.7030    -1.0530    -5.3340 ca         1 CHI      -0.039000
      9 C7          -0.0910    -1.1570    -2.8390 cc         1 CHI      -0.152200
     10 C8          -0.4280    -0.3340    -1.7660 cd         1 CHI      -0.143300
     11 C9           0.0570    -0.5870    -0.3750 c          1 CHI       0.642300
     12 O1           0.7770    -1.5270    -0.0700 o          1 CHI      -0.583100
     13 N2          -0.3880     0.3360     0.5470 ns         1 CHI      -0.501900
     14 C10          0.0020     0.3700     1.9780 c3         1 CHI       0.032700
     15 C11         -1.2160     0.7720     2.8720 c          1 CHI       0.595100
     16 O2          -2.2390     1.2220     2.3630 o          1 CHI      -0.611100
     17 N3          -1.1070     0.6790     4.2850 n          1 CHI      -0.399800
     18 C12         -0.1240    -0.1920     4.9880 c6         1 CHI       0.095000
     19 C13         -0.8300    -1.4190     5.6120 c6         1 CHI      -0.120400
     20 C14         -1.9720    -0.9760     6.5550 c6         1 CHI       0.175300
     21 O3          -2.6700    -2.1240     7.0410 oh         1 CHI      -0.654000
     22 C15         -2.9500    -0.0340     5.8140 c6         1 CHI      -0.120400
     23 C16         -2.1910     1.1570     5.1850 c6         1 CHI       0.095000
     24 C17          1.2110     1.3210     2.1980 c3         1 CHI      -0.040100
     25 C18          2.4390     0.9320     1.3830 ca         1 CHI      -0.099300
     26 C19          2.7210     1.5820     0.1640 ca         1 CHI      -0.076000
     27 C20          3.8460     1.2080    -0.5920 ca         1 CHI      -0.144500
     28 C21          4.6910     0.1880    -0.1300 ca         1 CHI       0.179000
     29 F1           5.7710    -0.1700    -0.8580 f          1 CHI      -0.177000
     30 C22          4.4200    -0.4620     1.0830 ca         1 CHI      -0.144500
     31 C23          3.2940    -0.0910     1.8400 ca         1 CHI      -0.076000
     32 H21         -2.6990     1.4290    -6.6200 ha         1 CHI       0.128000
     33 H31         -2.6800     2.1530    -4.2150 ha         1 CHI       0.120000
     34 HN1         -1.6690     1.4810    -1.7210 hn         1 CHI       0.351000
     35 H61         -0.1510    -1.9410    -5.6290 ha         1 CHI       0.134000
     36 H7           0.5390    -2.0430    -2.7840 ha         1 CHI       0.224000
     37 HN2         -1.0320     1.0410     0.2160 hn         1 CHI       0.332500
     38 H101         0.2890    -0.6460     2.2730 h1         1 CHI       0.099700
     39 H121         0.3590     0.3930     5.7850 h1         1 CHI       0.058950
     40 H122         0.6760    -0.5390     4.3230 h1         1 CHI       0.058950
     41 H131        -0.1000    -2.0250     6.1650 hc         1 CHI       0.063700
     42 H132        -1.2290    -2.0560     4.8120 hc         1 CHI       0.063700
     43 H14         -1.5300    -0.4260     7.3990 h1         1 CHI       0.025700
     44 HO3         -3.3240    -1.7990     7.6980 ho         1 CHI       0.445000
     45 H151        -3.4790    -0.5860     5.0240 hc         1 CHI       0.063700
     46 H152        -3.7160     0.3410     6.5070 hc         1 CHI       0.063700
     47 H161        -1.7450     1.7690     5.9830 h1         1 CHI       0.058950
     48 H162        -2.8970     1.8040     4.6460 h1         1 CHI       0.058950
     49 H171         0.9030     2.3440     1.9470 hc         1 CHI       0.058200
     50 H172         1.4760     1.3500     3.2610 hc         1 CHI       0.058200
     51 H191         2.0660     2.3690    -0.2010 ha         1 CHI       0.109500
     52 H201         4.0620     1.7060    -1.5340 ha         1 CHI       0.133500
     53 H221         5.0790    -1.2520     1.4340 ha         1 CHI       0.133500
     54 H231         3.0850    -0.6010     2.7780 ha         1 CHI       0.109500
@<TRIPOS>BOND
     1     1     2 1   
     2     2     3 ar  
     3     2     8 ar  
     4     3     4 ar  
     5     3    32 1   
     6     4     5 ar  
     7     4    33 1   
     8     5     6 1   
     9     5     7 ar  
    10     6    10 1   
    11     6    34 1   
    12     7     8 ar  
    13     7     9 1   
    14     8    35 1   
    15     9    10 2   
    16     9    36 1   
    17    10    11 1   
    18    11    12 2   
    19    11    13 1   
    20    13    14 1   
    21    13    37 1   
    22    14    15 1   
    23    14    24 1   
    24    14    38 1   
    25    15    16 2   
    26    15    17 1   
    27    17    18 1   
    28    17    23 1   
    29    18    19 1   
    30    18    39 1   
    31    18    40 1   
    32    19    20 1   
    33    19    41 1   
    34    19    42 1   
    35    20    21 1   
    36    20    22 1   
    37    20    43 1   
    38    21    44 1   
    39    22    23 1   
    40    22    45 1   
    41    22    46 1   
    42    23    47 1   
    43    23    48 1   
    44    24    25 1   
    45    24    49 1   
    46    24    50 1   
    47    25    26 ar  
    48    25    31 ar  
    49    26    27 ar  
    50    26    51 1   
    51    27    28 ar  
    52    27    52 1   
    53    28    29 1   
    54    28    30 ar  
    55    30    31 ar  
    56    30    53 1   
    57    31    54 1   
@<TRIPOS>SUBSTRUCTURE
     1 CHI         1 TEMP              0 ****  ****    0 ROOT
