@<TRIPOS>MOLECULE
CHJ
   32    34     1     0     0
SMALL
bcc


@<TRIPOS>ATOM
      1 C1          -0.3990     0.6540    -0.4760 ca         1 CHJ      -0.226000
      2 C2          -0.3450    -0.3070     0.5350 ca         1 CHJ       0.192100
      3 O13          0.8090    -0.7230     1.1100 os         1 CHJ      -0.227200
      4 C14          2.0090    -0.3260     0.5790 ca         1 CHJ       0.053100
      5 C15          2.4790    -0.9430    -0.5850 ca         1 CHJ       0.142100
      6 O20          1.6900    -1.8600    -1.1580 oh         1 CHJ      -0.471100
      7 C16          3.7220    -0.5770    -1.0870 ca         1 CHJ      -0.218000
      8 C17          4.4680     0.3850    -0.4230 ca         1 CHJ       0.070400
      9 CL1          6.0160     0.8230    -1.0640 cl         1 CHJ      -0.098400
     10 C18          4.0120     0.9970     0.7310 ca         1 CHJ      -0.151000
     11 C19          2.7660     0.6320     1.2230 ca         1 CHJ      -0.084000
     12 C3          -1.5050    -0.8820     1.0310 ca         1 CHJ      -0.188000
     13 C4          -2.7220    -0.4870     0.5020 ca         1 CHJ       0.205100
     14 C5          -2.8160     0.4640    -0.5160 ca         1 CHJ      -0.188800
     15 C6          -1.6250     1.0230    -0.9880 ca         1 CHJ      -0.039000
     16 C7          -4.1290     0.8070    -1.0110 cc         1 CHJ       0.052600
     17 C12         -4.2740     1.8110    -2.1040 c3         1 CHJ      -0.065900
     18 C8          -5.2040     0.1980    -0.4650 cd         1 CHJ      -0.292200
     19 C9          -5.0840    -0.7770     0.5920 c          1 CHJ       0.750800
     20 O10         -5.9950    -1.3570     1.1310 o          1 CHJ      -0.561500
     21 O11         -3.8260    -1.0710     1.0180 os         1 CHJ      -0.335200
     22 H1           0.4980     1.1180    -0.8610 ha         1 CHJ       0.147000
     23 H2           2.0910    -2.2010    -1.9660 ho         1 CHJ       0.434000
     24 H3           4.1030    -1.0450    -1.9870 ha         1 CHJ       0.152000
     25 H4           4.6040     1.7450     1.2380 ha         1 CHJ       0.157000
     26 H5           2.3830     1.0940     2.1240 ha         1 CHJ       0.157000
     27 H6          -1.4620    -1.6250     1.8170 ha         1 CHJ       0.173000
     28 H7          -1.6550     1.7670    -1.7720 ha         1 CHJ       0.135000
     29 H8          -3.7260     1.4970    -2.9940 hc         1 CHJ       0.054033
     30 H9          -5.3180     1.9490    -2.3780 hc         1 CHJ       0.054033
     31 H10         -3.8680     2.7770    -1.8020 hc         1 CHJ       0.054033
     32 H11         -6.2070     0.4190    -0.8020 ha         1 CHJ       0.162000
@<TRIPOS>BOND
     1     1     2 ar  
     2     1    15 ar  
     3     1    22 1   
     4     2     3 1   
     5     2    12 ar  
     6     3     4 1   
     7     4     5 ar  
     8     4    11 ar  
     9     5     6 1   
    10     5     7 ar  
    11     6    23 1   
    12     7     8 ar  
    13     7    24 1   
    14     8     9 1   
    15     8    10 ar  
    16    10    11 ar  
    17    10    25 1   
    18    11    26 1   
    19    12    13 ar  
    20    12    27 1   
    21    13    14 ar  
    22    13    21 1   
    23    14    15 ar  
    24    14    16 1   
    25    15    28 1   
    26    16    17 1   
    27    16    18 2   
    28    17    29 1   
    29    17    30 1   
    30    17    31 1   
    31    18    19 1   
    32    18    32 1   
    33    19    20 2   
    34    19    21 1   
@<TRIPOS>SUBSTRUCTURE
     1 CHJ         1 TEMP              0 ****  ****    0 ROOT
