@<TRIPOS>MOLECULE
CHJ
   32    34     1     0     0
SMALL
No Charge or Current Charge


@<TRIPOS>ATOM
      1 C1          -0.4440     0.8320    -0.3160 ca         1 CHJ      -0.208000
      2 C2          -0.3540    -0.1600     0.6780 ca         1 CHJ       0.192100
      3 O13          0.8460    -0.4820     1.2730 os         1 CHJ      -0.227200
      4 C14          2.0620    -0.2480     0.6680 ca         1 CHJ       0.053100
      5 C15          2.4310    -0.9140    -0.5260 ca         1 CHJ       0.142100
      6 O20          1.5940    -1.8230    -1.1150 oh         1 CHJ      -0.510100
      7 C16          3.6810    -0.6490    -1.1130 ca         1 CHJ      -0.200000
      8 C17          4.5590     0.2670    -0.5120 ca         1 CHJ       0.162000
      9 Cl1          6.1200     0.5930    -1.2510 cl         1 CHJ      -0.190000
     10 C18          4.1990     0.9190     0.6780 ca         1 CHJ      -0.133000
     11 C19          2.9500     0.6600     1.2710 ca         1 CHJ      -0.066000
     12 C3          -1.5130    -0.8200     1.1000 ca         1 CHJ      -0.170000
     13 C4          -2.7520    -0.5080     0.5250 ca         1 CHJ       0.205100
     14 C5          -2.8600     0.4750    -0.4800 ca         1 CHJ      -0.188800
     15 C6          -1.6860     1.1450    -0.8930 ca         1 CHJ      -0.021000
     16 C7          -4.1610     0.7970    -1.0790 cc         1 CHJ       0.052600
     17 C12         -4.3440     1.8360    -2.1560 c3         1 CHJ      -0.065900
     18 C8          -5.2190     0.0690    -0.5770 cd         1 CHJ      -0.342200
     19 C9          -5.1090    -0.9560     0.4720 c          1 CHJ       0.675300
     20 O10         -6.0810    -1.5730     0.8820 o          1 CHJ      -0.486000
     21 O11         -3.8590    -1.1810     0.9620 os         1 CHJ      -0.335200
     22 H1           0.4440     1.3670    -0.6440 ha         1 CHJ       0.129000
     23 H2           2.0300    -2.1780    -1.9180 ho         1 CHJ       0.473000
     24 H3           3.9800    -1.1500    -2.0300 ha         1 CHJ       0.134000
     25 H4           4.8860     1.6240     1.1390 ha         1 CHJ       0.139000
     26 H5           2.6690     1.1640     2.1920 ha         1 CHJ       0.139000
     27 H6          -1.4510    -1.5800     1.8740 ha         1 CHJ       0.155000
     28 H7          -1.7230     1.9150    -1.6610 ha         1 CHJ       0.117000
     29 H8          -3.7550     1.5840    -3.0460 hc         1 CHJ       0.054033
     30 H9          -5.3930     1.9150    -2.4650 hc         1 CHJ       0.054033
     31 H10         -4.0270     2.8250    -1.8030 hc         1 CHJ       0.054033
     32 H11         -6.2290     0.2150    -0.9370 ha         1 CHJ       0.212000
@<TRIPOS>BOND
     1     1     2 ar  
     2     1    15 ar  
     3     1    22 1   
     4     2     3 1   
     5     2    12 ar  
     6     3     4 1   
     7     4     5 ar  
     8     4    11 ar  
     9     5     6 1   
    10     5     7 ar  
    11     6    23 1   
    12     7     8 ar  
    13     7    24 1   
    14     8     9 1   
    15     8    10 ar  
    16    10    11 ar  
    17    10    25 1   
    18    11    26 1   
    19    12    13 ar  
    20    12    27 1   
    21    13    14 ar  
    22    13    21 1   
    23    14    15 ar  
    24    14    16 1   
    25    15    28 1   
    26    16    17 1   
    27    16    18 2   
    28    17    29 1   
    29    17    30 1   
    30    17    31 1   
    31    18    19 1   
    32    18    32 1   
    33    19    20 2   
    34    19    21 1   
@<TRIPOS>SUBSTRUCTURE
     1 CHJ         1 TEMP              0 ****  ****    0 ROOT
