@<TRIPOS>MOLECULE
CHK
   55    55     1     0     0
SMALL
No Charge or Current Charge


@<TRIPOS>ATOM
      1 OX1         -1.0020     0.4360     1.3480 o          1 CHK      -0.629100
      2 CX1          0.0350    -0.1170     1.7010 c          1 CHK       0.622100
      3 CX2          0.1570    -0.7460     3.1060 c3         1 CHK      -0.148400
      4 CX3         -0.9090    -0.3300     4.1670 c6         1 CHK      -0.047700
      5 CX4         -0.7570     1.1610     4.5860 c6         1 CHK      -0.072400
      6 CX5         -1.8100     1.5630     5.6480 c6         1 CHK      -0.072400
      7 CX6         -1.7390     0.6380     6.8870 c6         1 CHK      -0.074400
      8 CX7         -1.8900    -0.8480     6.4810 c6         1 CHK      -0.072400
      9 CX8         -0.8370    -1.2490     5.4180 c6         1 CHK      -0.072400
     10 NX1          1.0910    -0.2400     0.7650 n          1 CHK      -0.402800
     11 CX9          2.3370    -1.0090     1.0440 c3         1 CHK       0.106000
     12 CXA          3.5680    -0.1360     1.4050 c3         1 CHK       0.140600
     13 OX2          3.3190     0.6700     2.5660 oh         1 CHK      -0.655000
     14 CXB          1.0160     0.4650    -0.5450 c3         1 CHK       0.064000
     15 CXC          0.1890    -0.3000    -1.6160 c3         1 CHK       0.116300
     16 OX3         -1.1930    -0.3000    -1.2000 oh         1 CHK      -0.731000
     17 CXD          0.3230     0.3190    -3.0540 c3         1 CHK       0.104300
     18 OX4          1.7140     0.3310    -3.4570 oh         1 CHK      -0.702000
     19 CXE         -0.5320    -0.4090    -4.1580 c3         1 CHK       0.116300
     20 OX5         -1.8890    -0.5200    -3.7010 oh         1 CHK      -0.728000
     21 CXF         -0.5060     0.3120    -5.5530 c3         1 CHK       0.144300
     22 OX6          0.8620     0.4940    -5.9780 oh         1 CHK      -0.693000
     23 CXG         -1.3110    -0.4610    -6.6460 c3         1 CHK       0.135600
     24 OX7         -1.3880     0.2830    -7.8790 oh         1 CHK      -0.707000
     25 HX21         0.1520    -1.8300     2.9490 hc         1 CHK       0.065200
     26 HX22         1.1730    -0.5890     3.4820 hc         1 CHK       0.065200
     27 H1          -1.8950    -0.4690     3.7000 hc         1 CHK       0.067700
     28 HX41         0.2520     1.3340     4.9860 hc         1 CHK       0.039950
     29 HX42        -0.8580     1.8160     3.7100 hc         1 CHK       0.039950
     30 HX51        -2.8160     1.5170     5.2080 hc         1 CHK       0.038700
     31 HX52        -1.6510     2.6070     5.9530 hc         1 CHK       0.038700
     32 HX61        -2.5260     0.9120     7.6020 hc         1 CHK       0.036200
     33 HX62        -0.7810     0.7850     7.4040 hc         1 CHK       0.036200
     34 HX71        -2.9010    -1.0230     6.0860 hc         1 CHK       0.038700
     35 HX72        -1.7880    -1.4880     7.3680 hc         1 CHK       0.038700
     36 HX81        -0.9970    -2.2960     5.1250 hc         1 CHK       0.039950
     37 HX82         0.1680    -1.2000     5.8610 hc         1 CHK       0.039950
     38 HX91         2.5870    -1.5850     0.1440 h1         1 CHK       0.056200
     39 HX92         2.1730    -1.7480     1.8370 h1         1 CHK       0.056200
     40 HXA1         3.8160     0.5050     0.5490 h1         1 CHK       0.023700
     41 HXA2         4.4280    -0.7960     1.5810 h1         1 CHK       0.023700
     42 HX2          4.1290     1.2050     2.7250 ho         1 CHK       0.448000
     43 HXB1         0.5940     1.4690    -0.4010 h1         1 CHK       0.071200
     44 HXB2         2.0370     0.6120    -0.9200 h1         1 CHK       0.071200
     45 HXC          0.5610    -1.3340    -1.6550 h1         1 CHK       0.070700
     46 HX3         -1.1990    -0.0160    -0.2360 ho         1 CHK       0.536000
     47 HXD         -0.0420     1.3550    -2.9950 h1         1 CHK       0.096700
     48 HX4          2.1390    -0.4990    -3.1300 ho         1 CHK       0.496000
     49 HXE         -0.1170    -1.4180    -4.2900 h1         1 CHK       0.048700
     50 HX5         -1.8130    -0.4880    -2.6990 ho         1 CHK       0.539000
     51 HXF         -0.9850     1.2920    -5.4200 h1         1 CHK       0.085700
     52 HX6          1.3790     0.5530    -5.1280 ho         1 CHK       0.499000
     53 HXG1        -0.8340    -1.4360    -6.8180 h1         1 CHK       0.026200
     54 HXG2        -2.3260    -0.6580    -6.2750 h1         1 CHK       0.026200
     55 HX7         -1.8420    -0.2940    -8.5370 ho         1 CHK       0.500000
@<TRIPOS>BOND
     1     1     2 2   
     2     2     3 1   
     3     2    10 1   
     4     3     4 1   
     5     3    25 1   
     6     3    26 1   
     7     4     5 1   
     8     4     9 1   
     9     4    27 1   
    10     5     6 1   
    11     5    28 1   
    12     5    29 1   
    13     6     7 1   
    14     6    30 1   
    15     6    31 1   
    16     7     8 1   
    17     7    32 1   
    18     7    33 1   
    19     8     9 1   
    20     8    34 1   
    21     8    35 1   
    22     9    36 1   
    23     9    37 1   
    24    10    11 1   
    25    10    14 1   
    26    11    12 1   
    27    11    38 1   
    28    11    39 1   
    29    12    13 1   
    30    12    40 1   
    31    12    41 1   
    32    13    42 1   
    33    14    15 1   
    34    14    43 1   
    35    14    44 1   
    36    15    16 1   
    37    15    17 1   
    38    15    45 1   
    39    16    46 1   
    40    17    18 1   
    41    17    19 1   
    42    17    47 1   
    43    18    48 1   
    44    19    20 1   
    45    19    21 1   
    46    19    49 1   
    47    20    50 1   
    48    21    22 1   
    49    21    23 1   
    50    21    51 1   
    51    22    52 1   
    52    23    24 1   
    53    23    53 1   
    54    23    54 1   
    55    24    55 1   
@<TRIPOS>SUBSTRUCTURE
     1 CHK         1 TEMP              0 ****  ****    0 ROOT
