@<TRIPOS>MOLECULE
CHK
   55    55     1     0     0
SMALL
abcg2


@<TRIPOS>ATOM
      1 OX1         -1.0540     0.5800     1.2710 o          1 CHK      -0.629100
      2 CX1         -0.1060    -0.1240     1.6150 c          1 CHK       0.622100
      3 CX2         -0.1470    -0.8670     2.9350 c3         1 CHK      -0.148400
      4 CX3         -1.0220    -0.2020     3.9930 c6         1 CHK      -0.047700
      5 CX4         -0.4440     1.1430     4.4370 c6         1 CHK      -0.072400
      6 CX5         -1.2600     1.7760     5.5600 c6         1 CHK      -0.072400
      7 CX6         -1.3980     0.8330     6.7510 c6         1 CHK      -0.074400
      8 CX7         -1.9860    -0.5050     6.3180 c6         1 CHK      -0.072400
      9 CX8         -1.1680    -1.1350     5.1960 c6         1 CHK      -0.072400
     10 NX1          0.9690    -0.2850     0.8120 n          1 CHK      -0.402800
     11 CX9          2.1030    -1.1470     1.1000 c3         1 CHK       0.106000
     12 CXA          3.3100    -0.4020     1.6370 c3         1 CHK       0.140600
     13 OX2          2.9790     0.2120     2.8590 oh         1 CHK      -0.655000
     14 CXB          1.0080     0.4000    -0.4670 c3         1 CHK       0.064000
     15 CXC          0.4360    -0.4550    -1.6010 c3         1 CHK       0.116300
     16 OX3         -0.8480    -0.9620    -1.2740 oh         1 CHK      -0.731000
     17 CXD          0.3600     0.3490    -2.9100 c3         1 CHK       0.104300
     18 OX4          1.5580     1.0460    -3.1640 oh         1 CHK      -0.702000
     19 CXE         -0.0370    -0.5130    -4.1380 c3         1 CHK       0.116300
     20 OX5         -0.7100    -1.7100    -3.8230 oh         1 CHK      -0.728000
     21 CXF         -0.8750     0.3000    -5.1420 c3         1 CHK       0.144300
     22 OX6         -0.3390     1.5810    -5.3790 oh         1 CHK      -0.693000
     23 CXG         -1.0660    -0.4740    -6.4370 c3         1 CHK       0.135600
     24 OX7         -1.9390     0.2470    -7.2760 oh         1 CHK      -0.707000
     25 HX21        -0.5320    -1.8710     2.7180 hc         1 CHK       0.065200
     26 HX22         0.8480    -1.0090     3.3520 hc         1 CHK       0.065200
     27 H1          -2.0210    -0.0280     3.5770 hc         1 CHK       0.067700
     28 HX41         0.5880     0.9880     4.7780 hc         1 CHK       0.039950
     29 HX42        -0.3900     1.8300     3.5900 hc         1 CHK       0.039950
     30 HX51        -2.2570     2.0300     5.1840 hc         1 CHK       0.038700
     31 HX52        -0.7990     2.7170     5.8700 hc         1 CHK       0.038700
     32 HX61        -2.0180     1.2880     7.5270 hc         1 CHK       0.036200
     33 HX62        -0.4110     0.6680     7.1970 hc         1 CHK       0.036200
     34 HX71        -3.0150    -0.3530     5.9720 hc         1 CHK       0.038700
     35 HX72        -2.0440    -1.1890     7.1680 hc         1 CHK       0.038700
     36 HX81        -1.6260    -2.0780     4.8820 hc         1 CHK       0.039950
     37 HX82        -0.1700    -1.3890     5.5750 hc         1 CHK       0.039950
     38 HX91         2.4030    -1.6430     0.1740 h1         1 CHK       0.056200
     39 HX92         1.8140    -1.9480     1.7770 h1         1 CHK       0.056200
     40 HXA1         3.6440     0.3340     0.8950 h1         1 CHK       0.023700
     41 HXA2         4.1250    -1.1290     1.7460 h1         1 CHK       0.023700
     42 HX2          3.7150     0.7700     3.1250 ho         1 CHK       0.448000
     43 HXB1         0.4660     1.3430    -0.3930 h1         1 CHK       0.071200
     44 HXB2         2.0430     0.6530    -0.6940 h1         1 CHK       0.071200
     45 HXC          1.0790    -1.3330    -1.7380 h1         1 CHK       0.070700
     46 HX3         -1.3660    -0.2570    -0.8650 ho         1 CHK       0.536000
     47 HXD         -0.4000     1.1240    -2.7550 h1         1 CHK       0.096700
     48 HX4          2.2570     0.4050    -3.3350 ho         1 CHK       0.496000
     49 HXE          0.9000    -0.8120    -4.6320 h1         1 CHK       0.048700
     50 HX5         -1.1820    -1.5820    -2.9860 ho         1 CHK       0.539000
     51 HXF         -1.8580     0.4710    -4.6860 h1         1 CHK       0.085700
     52 HX6          0.5890     1.4900    -5.6210 ho         1 CHK       0.499000
     53 HXG1        -0.0830    -0.6240    -6.9090 h1         1 CHK       0.026200
     54 HXG2        -1.4620    -1.4690    -6.2040 h1         1 CHK       0.026200
     55 HX7         -2.0960    -0.2820    -8.0620 ho         1 CHK       0.500000
@<TRIPOS>BOND
     1     1     2 2   
     2     2     3 1   
     3     2    10 1   
     4     3     4 1   
     5     3    25 1   
     6     3    26 1   
     7     4     5 1   
     8     4     9 1   
     9     4    27 1   
    10     5     6 1   
    11     5    28 1   
    12     5    29 1   
    13     6     7 1   
    14     6    30 1   
    15     6    31 1   
    16     7     8 1   
    17     7    32 1   
    18     7    33 1   
    19     8     9 1   
    20     8    34 1   
    21     8    35 1   
    22     9    36 1   
    23     9    37 1   
    24    10    11 1   
    25    10    14 1   
    26    11    12 1   
    27    11    38 1   
    28    11    39 1   
    29    12    13 1   
    30    12    40 1   
    31    12    41 1   
    32    13    42 1   
    33    14    15 1   
    34    14    43 1   
    35    14    44 1   
    36    15    16 1   
    37    15    17 1   
    38    15    45 1   
    39    16    46 1   
    40    17    18 1   
    41    17    19 1   
    42    17    47 1   
    43    18    48 1   
    44    19    20 1   
    45    19    21 1   
    46    19    49 1   
    47    20    50 1   
    48    21    22 1   
    49    21    23 1   
    50    21    51 1   
    51    22    52 1   
    52    23    24 1   
    53    23    53 1   
    54    23    54 1   
    55    24    55 1   
@<TRIPOS>SUBSTRUCTURE
     1 CHK         1 TEMP              0 ****  ****    0 ROOT
