@<TRIPOS>MOLECULE
CHM
   10     9     1     0     0
SMALL
No Charge or Current Charge


@<TRIPOS>ATOM
      1 C1          -0.9120     0.0470    -1.2870 c3         1 CHM      -0.003400
      2 C2          -0.0720     0.0080     0.0010 c          1 CHM       0.556100
      3 C3          -0.8810    -0.0270     1.3080 c3         1 CHM      -0.003400
      4 O            1.1550     0.0050    -0.0140 o          1 CHM      -0.445100
      5 Cl1          0.0630     0.0880    -2.8330 cl         1 CHM      -0.219000
      6 Cl3          0.1310    -0.0730     2.8300 cl         1 CHM      -0.219000
      7 H11         -1.5480     0.9410    -1.2640 h1         1 CHM       0.083700
      8 H12         -1.5530    -0.8430    -1.3140 h1         1 CHM       0.083700
      9 H31         -1.5160     0.8660     1.3510 h1         1 CHM       0.083700
     10 H32         -1.5210    -0.9170     1.3000 h1         1 CHM       0.083700
@<TRIPOS>BOND
     1     1     2 1   
     2     1     5 1   
     3     1     7 1   
     4     1     8 1   
     5     2     3 1   
     6     2     4 2   
     7     3     6 1   
     8     3     9 1   
     9     3    10 1   
@<TRIPOS>SUBSTRUCTURE
     1 CHM         1 TEMP              0 ****  ****    0 ROOT
