@<TRIPOS>MOLECULE
CHM
   10     9     1     0     0
SMALL
abcg2


@<TRIPOS>ATOM
      1 C1          -0.9100     0.0550    -1.2450 c3         1 CHM      -0.003400
      2 C2          -0.0530     0.0080     0.0000 c          1 CHM       0.556100
      3 C3          -0.8800    -0.0350     1.2660 c3         1 CHM      -0.003400
      4 O            1.1440     0.0050    -0.0140 o          1 CHM      -0.445100
      5 CL1          0.0680     0.0600    -2.7220 cl         1 CHM      -0.219000
      6 CL3          0.1330    -0.0450     2.7190 cl         1 CHM      -0.219000
      7 H11         -1.5290     0.9530    -1.2300 h1         1 CHM       0.083700
      8 H12         -1.5790    -0.8050    -1.2680 h1         1 CHM       0.083700
      9 H31         -1.5440     0.8290     1.3060 h1         1 CHM       0.083700
     10 H32         -1.5040    -0.9290     1.2660 h1         1 CHM       0.083700
@<TRIPOS>BOND
     1     1     2 1   
     2     1     5 1   
     3     1     7 1   
     4     1     8 1   
     5     2     3 1   
     6     2     4 2   
     7     3     6 1   
     8     3     9 1   
     9     3    10 1   
@<TRIPOS>SUBSTRUCTURE
     1 CHM         1 TEMP              0 ****  ****    0 ROOT
