@<TRIPOS>MOLECULE
CHN
   25    25     1     0     0
SMALL
bcc


@<TRIPOS>ATOM
      1 N1          -0.4740    -0.0140     3.2510 n8         1 CHN      -0.884800
      2 C1           0.5130    -0.4050     2.2540 c3         1 CHN       0.150800
      3 C2           0.2690     0.2740     0.9120 c6         1 CHN      -0.056700
      4 C7           1.3740    -0.0760    -0.0830 c6         1 CHN      -0.062400
      5 C6           1.1560     0.6020    -1.4300 c6         1 CHN      -0.066400
      6 C5          -0.2110     0.2830    -2.0350 c6         1 CHN       0.162500
      7 C4          -1.3150     0.6040    -1.0280 c6         1 CHN      -0.066400
      8 C3          -1.0960    -0.0700     0.3220 c6         1 CHN      -0.062400
      9 N2          -0.2690    -1.1290    -2.3980 n8         1 CHN      -0.885800
     10 HN11        -0.3750     0.9760     3.4440 hn         1 CHN       0.334300
     11 HN12        -0.2710    -0.4810     4.1250 hn         1 CHN       0.334300
     12 H11          1.5480    -0.1950     2.5670 h1         1 CHN       0.027700
     13 H12          0.4490    -1.4890     2.1160 h1         1 CHN       0.027700
     14 H21          0.3050     1.3620     1.0760 hc         1 CHN       0.035700
     15 H71          2.3480     0.2190     0.3220 hc         1 CHN       0.047950
     16 H72          1.4080    -1.1610    -0.2180 hc         1 CHN       0.047950
     17 H61          1.2350     1.6870    -1.3080 hc         1 CHN       0.035450
     18 H62          1.9460     0.3170    -2.1330 hc         1 CHN       0.035450
     19 H51         -0.3510     0.9380    -2.9090 h1         1 CHN       0.010700
     20 H41         -1.3540     1.6900    -0.8920 hc         1 CHN       0.035450
     21 H42         -2.2860     0.3160    -1.4430 hc         1 CHN       0.035450
     22 H31         -1.1710    -1.1560     0.2080 hc         1 CHN       0.047950
     23 H32         -1.8860     0.2240     1.0170 hc         1 CHN       0.047950
     24 HN21        -1.1490    -1.3200    -2.8630 hn         1 CHN       0.334800
     25 HN22         0.4500    -1.3300    -3.0820 hn         1 CHN       0.334800
@<TRIPOS>BOND
     1     1     2 1   
     2     1    10 1   
     3     1    11 1   
     4     2     3 1   
     5     2    12 1   
     6     2    13 1   
     7     3     4 1   
     8     3     8 1   
     9     3    14 1   
    10     4     5 1   
    11     4    15 1   
    12     4    16 1   
    13     5     6 1   
    14     5    17 1   
    15     5    18 1   
    16     6     7 1   
    17     6     9 1   
    18     6    19 1   
    19     7     8 1   
    20     7    20 1   
    21     7    21 1   
    22     8    22 1   
    23     8    23 1   
    24     9    24 1   
    25     9    25 1   
@<TRIPOS>SUBSTRUCTURE
     1 CHN         1 TEMP              0 ****  ****    0 ROOT
