@<TRIPOS>MOLECULE
CHN
   25    25     1     0     0
SMALL
No Charge or Current Charge


@<TRIPOS>ATOM
      1 N1          -0.4510    -0.0080     3.3620 n8         1 CHN      -0.995200
      2 C1           0.5010    -0.4130     2.3080 c3         1 CHN       0.150800
      3 C2           0.2600     0.2750     0.9300 c6         1 CHN      -0.056700
      4 C7           1.3940    -0.0850    -0.0720 c6         1 CHN      -0.062400
      5 C6           1.1810     0.6010    -1.4490 c6         1 CHN      -0.066400
      6 C5          -0.2060     0.2700    -2.0640 c6         1 CHN       0.162500
      7 C4          -1.3420     0.5990    -1.0580 c6         1 CHN      -0.066400
      8 C3          -1.1290    -0.0840     0.3200 c6         1 CHN      -0.062400
      9 N2          -0.2730    -1.1370    -2.5100 n8         1 CHN      -0.996200
     10 HN11        -0.3420     0.9970     3.5410 hn         1 CHN       0.389500
     11 HN12        -0.1720    -0.4430     4.2500 hn         1 CHN       0.389500
     12 H11          1.5150    -0.1650     2.6540 h1         1 CHN       0.027700
     13 H12          0.4420    -1.5030     2.1820 h1         1 CHN       0.027700
     14 H21          0.2940     1.3590     1.1110 hc         1 CHN       0.035700
     15 H71          2.3660     0.2210     0.3390 hc         1 CHN       0.047950
     16 H72          1.4450    -1.1750    -0.2030 hc         1 CHN       0.047950
     17 H61          1.2700     1.6890    -1.3270 hc         1 CHN       0.035450
     18 H62          1.9830     0.3070    -2.1400 hc         1 CHN       0.035450
     19 H51         -0.3460     0.8850    -2.9650 h1         1 CHN       0.010700
     20 H41         -1.3920     1.6870    -0.9160 hc         1 CHN       0.035450
     21 H42         -2.3150     0.3040    -1.4750 hc         1 CHN       0.035450
     22 H31         -1.2180    -1.1740     0.2130 hc         1 CHN       0.047950
     23 H32         -1.9340     0.2240     1.0010 hc         1 CHN       0.047950
     24 HN21        -1.1650    -1.2830    -2.9950 hn         1 CHN       0.390000
     25 HN22         0.4270    -1.2810    -3.2450 hn         1 CHN       0.390000
@<TRIPOS>BOND
     1     1     2 1   
     2     1    10 1   
     3     1    11 1   
     4     2     3 1   
     5     2    12 1   
     6     2    13 1   
     7     3     4 1   
     8     3     8 1   
     9     3    14 1   
    10     4     5 1   
    11     4    15 1   
    12     4    16 1   
    13     5     6 1   
    14     5    17 1   
    15     5    18 1   
    16     6     7 1   
    17     6     9 1   
    18     6    19 1   
    19     7     8 1   
    20     7    20 1   
    21     7    21 1   
    22     8    22 1   
    23     8    23 1   
    24     9    24 1   
    25     9    25 1   
@<TRIPOS>SUBSTRUCTURE
     1 CHN         1 TEMP              0 ****  ****    0 ROOT
