@<TRIPOS>MOLECULE
CHO
   74    77     1     0     0
SMALL
No Charge or Current Charge


@<TRIPOS>ATOM
      1 C1           5.6110    -1.9670    -0.1770 c6         1 CHO      -0.064400
      2 C2           5.7250    -1.7270    -1.7010 c6         1 CHO      -0.111400
      3 C3           6.5570    -0.4570    -1.9790 c6         1 CHO       0.172300
      4 O3           6.6390    -0.2250    -3.3880 oh         1 CHO      -0.660000
      5 C4           5.9200     0.7620    -1.2770 c6         1 CHO      -0.075400
      6 C5           5.7620     0.5390     0.2650 c6         1 CHO      -0.042700
      7 C6           5.1560     1.7920     0.9760 c6         1 CHO      -0.104400
      8 C7           3.6350     2.0000     0.7330 c6         1 CHO       0.177300
      9 O7           3.3990     2.5390    -0.5740 oh         1 CHO      -0.655000
     10 C8           2.8180     0.6900     0.9990 c6         1 CHO      -0.033700
     11 C9           3.4240    -0.5600     0.2560 c6         1 CHO      -0.044700
     12 C10          4.9610    -0.7750     0.6150 c6         1 CHO      -0.032000
     13 C11          2.5390    -1.8330     0.4950 c6         1 CHO      -0.070400
     14 C12          1.0340    -1.6060     0.1710 c6         1 CHO      -0.062400
     15 C13          0.4260    -0.4050     0.9660 c5         1 CHO      -0.041000
     16 C14          1.3070     0.8450     0.6380 c5         1 CHO      -0.062700
     17 C15          0.5270     1.9930     1.3240 c5         1 CHO      -0.069400
     18 C16         -0.9620     1.6220     1.0390 c5         1 CHO      -0.077400
     19 C17         -0.9480     0.1690     0.4240 c5         1 CHO      -0.051700
     20 C18          0.3500    -0.7970     2.4830 c3         1 CHO      -0.077100
     21 C19          5.1540    -1.1180     2.1380 c3         1 CHO      -0.085100
     22 C20         -2.2860    -0.6220     0.6840 c3         1 CHO      -0.051700
     23 C21         -2.2420    -2.0960     0.2060 c3         1 CHO      -0.086100
     24 C22         -3.5140     0.1280     0.0730 c3         1 CHO      -0.068400
     25 C23         -4.9100    -0.4360     0.4540 c3         1 CHO      -0.158400
     26 C24         -6.0350     0.5230     0.0430 c          1 CHO       0.579100
     27 O24         -6.2820     1.5540     0.6550 o          1 CHO      -0.663100
     28 N25         -6.7740     0.1220    -1.0470 ns         1 CHO      -0.461900
     29 C26         -7.9090     0.8750    -1.6300 c3         1 CHO      -0.056000
     30 C27         -8.6650     0.0570    -2.7150 c          1 CHO       0.712000
     31 OT1         -8.0240    -0.7150    -3.4170 o          1 CHO      -0.731500
     32 OT2         -9.8790     0.1830    -2.7900 o          1 CHO      -0.731500
     33 H11          5.0770    -2.9070     0.0110 hc         1 CHO       0.038200
     34 H12          6.6260    -2.1440     0.2090 hc         1 CHO       0.038200
     35 H21          6.2060    -2.5960    -2.1690 hc         1 CHO       0.047200
     36 H22          4.7280    -1.6440    -2.1530 hc         1 CHO       0.047200
     37 H3           7.5680    -0.6030    -1.5710 h1         1 CHO       0.019700
     38 HO3          7.0780    -1.0140    -3.7750 ho         1 CHO       0.438000
     39 H41          6.5430     1.6490    -1.4570 hc         1 CHO       0.059200
     40 H42          4.9560     0.9670    -1.7530 hc         1 CHO       0.059200
     41 H5           6.7820     0.4200     0.6580 hc         1 CHO       0.035700
     42 H61          5.3270     1.7100     2.0580 hc         1 CHO       0.039700
     43 H62          5.7080     2.6930     0.6750 hc         1 CHO       0.039700
     44 H7           3.2970     2.7440     1.4690 h1         1 CHO       0.028700
     45 HO7          3.8990     3.3810    -0.6230 ho         1 CHO       0.435000
     46 H8           2.8640     0.5110     2.0790 hc         1 CHO       0.047700
     47 H9           3.3520    -0.3470    -0.8180 hc         1 CHO       0.062700
     48 H111         2.8870    -2.6570    -0.1400 hc         1 CHO       0.033700
     49 H112         2.6380    -2.1890     1.5270 hc         1 CHO       0.033700
     50 H121         0.9230    -1.4360    -0.9090 hc         1 CHO       0.042700
     51 H122         0.5010    -2.5350     0.3910 hc         1 CHO       0.042700
     52 H14          1.3060     1.0170    -0.4460 hc         1 CHO       0.063700
     53 H151         0.7310     2.0400     2.4000 hc         1 CHO       0.036700
     54 H152         0.7890     2.9730     0.9100 hc         1 CHO       0.036700
     55 H161        -1.5480     1.6700     1.9650 hc         1 CHO       0.047700
     56 H162        -1.4180     2.3380     0.3460 hc         1 CHO       0.047700
     57 H17         -0.8840     0.2530    -0.6680 hc         1 CHO       0.047700
     58 H181         1.3370    -0.9600     2.9270 hc         1 CHO       0.029700
     59 H182        -0.1470    -0.0350     3.0930 hc         1 CHO       0.029700
     60 H183        -0.2180    -1.7240     2.6210 hc         1 CHO       0.029700
     61 H191         6.2190    -1.1810     2.3940 hc         1 CHO       0.031700
     62 H192         4.7190    -0.3760     2.8140 hc         1 CHO       0.031700
     63 H193         4.7160    -2.0880     2.3970 hc         1 CHO       0.031700
     64 H20         -2.4490    -0.6530     1.7690 hc         1 CHO       0.041700
     65 H211        -1.8870    -2.1650    -0.8300 hc         1 CHO       0.031033
     66 H212        -1.5870    -2.6920     0.8480 hc         1 CHO       0.031033
     67 H213        -3.2220    -2.5790     0.2630 hc         1 CHO       0.031033
     68 H221        -3.4930     1.1740     0.3990 hc         1 CHO       0.051700
     69 H222        -3.4190     0.1480    -1.0200 hc         1 CHO       0.051700
     70 H231        -5.0560    -1.4000    -0.0460 hc         1 CHO       0.048200
     71 H232        -4.9460    -0.5680     1.5420 hc         1 CHO       0.048200
     72 HN          -6.4980    -0.7460    -1.4950 hn         1 CHO       0.335500
     73 H261        -8.6130     1.1400    -0.8310 h1         1 CHO       0.035200
     74 H262        -7.5310     1.7960    -2.0910 h1         1 CHO       0.035200
@<TRIPOS>BOND
     1     1     2 1   
     2     1    12 1   
     3     1    33 1   
     4     1    34 1   
     5     2     3 1   
     6     2    35 1   
     7     2    36 1   
     8     3     4 1   
     9     3     5 1   
    10     3    37 1   
    11     4    38 1   
    12     5     6 1   
    13     5    39 1   
    14     5    40 1   
    15     6     7 1   
    16     6    12 1   
    17     6    41 1   
    18     7     8 1   
    19     7    42 1   
    20     7    43 1   
    21     8     9 1   
    22     8    10 1   
    23     8    44 1   
    24     9    45 1   
    25    10    11 1   
    26    10    16 1   
    27    10    46 1   
    28    11    12 1   
    29    11    13 1   
    30    11    47 1   
    31    12    21 1   
    32    13    14 1   
    33    13    48 1   
    34    13    49 1   
    35    14    15 1   
    36    14    50 1   
    37    14    51 1   
    38    15    16 1   
    39    15    19 1   
    40    15    20 1   
    41    16    17 1   
    42    16    52 1   
    43    17    18 1   
    44    17    53 1   
    45    17    54 1   
    46    18    19 1   
    47    18    55 1   
    48    18    56 1   
    49    19    22 1   
    50    19    57 1   
    51    20    58 1   
    52    20    59 1   
    53    20    60 1   
    54    21    61 1   
    55    21    62 1   
    56    21    63 1   
    57    22    23 1   
    58    22    24 1   
    59    22    64 1   
    60    23    65 1   
    61    23    66 1   
    62    23    67 1   
    63    24    25 1   
    64    24    68 1   
    65    24    69 1   
    66    25    26 1   
    67    25    70 1   
    68    25    71 1   
    69    26    27 2   
    70    26    28 1   
    71    28    29 1   
    72    28    72 1   
    73    29    30 1   
    74    29    73 1   
    75    29    74 1   
    76    30    31 1   
    77    30    32 1   
@<TRIPOS>SUBSTRUCTURE
     1 CHO         1 TEMP              0 ****  ****    0 ROOT
