@<TRIPOS>MOLECULE
CHO
   74    77     1     0     0
SMALL
bcc


@<TRIPOS>ATOM
      1 C1           5.5120    -1.9730    -0.1730 c6         1 CHO      -0.064400
      2 C2           5.7620    -1.6270    -1.6340 c6         1 CHO      -0.111400
      3 C3           6.6540    -0.3990    -1.7310 c6         1 CHO       0.149100
      4 O3           6.8900    -0.0010    -3.0690 oh         1 CHO      -0.597800
      5 C4           6.0070     0.7630    -1.0030 c6         1 CHO      -0.075400
      6 C5           5.7250     0.4330     0.4690 c6         1 CHO      -0.042700
      7 C6           5.1220     1.6190     1.2240 c6         1 CHO      -0.104400
      8 C7           3.6600     1.9090     0.8980 c6         1 CHO       0.154100
      9 O7           3.4950     2.4740    -0.3920 oh         1 CHO      -0.592800
     10 C8           2.8070     0.6430     0.9910 c6         1 CHO      -0.033700
     11 C9           3.4160    -0.5410     0.2110 c6         1 CHO      -0.044700
     12 C10          4.8710    -0.8440     0.6540 c6         1 CHO      -0.032000
     13 C11          2.4980    -1.7680     0.2740 c6         1 CHO      -0.070400
     14 C12          1.0460    -1.4800    -0.1100 c6         1 CHO      -0.062400
     15 C13          0.4520    -0.3410     0.7180 c5         1 CHO      -0.041000
     16 C14          1.3770     0.8750     0.5200 c5         1 CHO      -0.062700
     17 C15          0.5920     2.0390     1.1090 c5         1 CHO      -0.069400
     18 C16         -0.8720     1.6980     0.7650 c5         1 CHO      -0.077400
     19 C17         -0.8860     0.2510     0.2060 c5         1 CHO      -0.051700
     20 C18          0.3220    -0.7390     2.1910 c3         1 CHO      -0.077100
     21 C19          4.9350    -1.2930     2.1190 c3         1 CHO      -0.085100
     22 C20         -2.1990    -0.4780     0.5240 c3         1 CHO      -0.051700
     23 C21         -2.1950    -1.9400     0.0850 c3         1 CHO      -0.086100
     24 C22         -3.3680     0.2790    -0.1220 c3         1 CHO      -0.068400
     25 C23         -4.7430    -0.2370     0.2970 c3         1 CHO      -0.158400
     26 C24         -5.8650     0.6330    -0.2230 c          1 CHO       0.646100
     27 O24         -5.8640     1.8550    -0.0940 o          1 CHO      -0.663100
     28 N25         -6.8710    -0.0210    -0.8160 ns         1 CHO      -0.528900
     29 C26         -8.0540     0.6150    -1.3320 c3         1 CHO      -0.056000
     30 C27         -9.0400    -0.4180    -1.9130 c          1 CHO       0.922600
     31 OT1         -8.7020    -1.6170    -1.8740 o          1 CHO      -0.836800
     32 OT2        -10.0930     0.0560    -2.3730 o          1 CHO      -0.836800
     33 H11          4.9140    -2.8850    -0.1030 hc         1 CHO       0.038200
     34 H12          6.4750    -2.2160     0.2930 hc         1 CHO       0.038200
     35 H21          6.2360    -2.4780    -2.1370 hc         1 CHO       0.047200
     36 H22          4.8200    -1.4360    -2.1590 hc         1 CHO       0.047200
     37 H3           7.6080    -0.6350    -1.2320 h1         1 CHO       0.019700
     38 HO3          7.2760    -0.7470    -3.5380 ho         1 CHO       0.399000
     39 H41          6.6670     1.6370    -1.0440 hc         1 CHO       0.059200
     40 H42          5.0890     1.0380    -1.5250 hc         1 CHO       0.059200
     41 H5           6.7020     0.2250     0.9290 hc         1 CHO       0.035700
     42 H61          5.1930     1.4370     2.3000 hc         1 CHO       0.039700
     43 H62          5.7240     2.5190     1.0460 hc         1 CHO       0.039700
     44 H7           3.2870     2.6190     1.6510 h1         1 CHO       0.028700
     45 HO7          4.1230     3.1970    -0.4820 ho         1 CHO       0.396000
     46 H8           2.7710     0.3870     2.0560 hc         1 CHO       0.047700
     47 H9           3.4440    -0.2310    -0.8410 hc         1 CHO       0.062700
     48 H111         2.8800    -2.5460    -0.3910 hc         1 CHO       0.033700
     49 H112         2.5270    -2.1990     1.2790 hc         1 CHO       0.033700
     50 H121         0.9990    -1.2000    -1.1690 hc         1 CHO       0.042700
     51 H122         0.4670    -2.4000    -0.0140 hc         1 CHO       0.042700
     52 H14          1.4200     1.0370    -0.5660 hc         1 CHO       0.063700
     53 H151         0.7380     2.1010     2.1910 hc         1 CHO       0.036700
     54 H152         0.9050     2.9980     0.6950 hc         1 CHO       0.036700
     55 H161        -1.5120     1.7590     1.6500 hc         1 CHO       0.047700
     56 H162        -1.2860     2.4030     0.0430 hc         1 CHO       0.047700
     57 H17         -0.8010     0.3000    -0.8890 hc         1 CHO       0.047700
     58 H181         1.2740    -1.0370     2.6310 hc         1 CHO       0.029700
     59 H182        -0.0700     0.0750     2.8020 hc         1 CHO       0.029700
     60 H183        -0.3600    -1.5830     2.3080 hc         1 CHO       0.029700
     61 H191         5.9790    -1.3850     2.4310 hc         1 CHO       0.031700
     62 H192         4.4510    -0.6050     2.8120 hc         1 CHO       0.031700
     63 H193         4.4710    -2.2710     2.2580 hc         1 CHO       0.031700
     64 H20         -2.3490    -0.4460     1.6100 hc         1 CHO       0.041700
     65 H211        -1.9560    -2.0300    -0.9780 hc         1 CHO       0.031033
     66 H212        -1.4650    -2.5280     0.6400 hc         1 CHO       0.031033
     67 H213        -3.1630    -2.4130     0.2480 hc         1 CHO       0.031033
     68 H221        -3.3080     1.3370     0.1380 hc         1 CHO       0.051700
     69 H222        -3.2730     0.2220    -1.2120 hc         1 CHO       0.051700
     70 H231        -4.8910    -1.2690    -0.0220 hc         1 CHO       0.048200
     71 H232        -4.8160    -0.2340     1.3890 hc         1 CHO       0.048200
     72 HN          -6.8410    -1.0250    -0.9160 hn         1 CHO       0.335500
     73 H261        -8.5640     1.1840    -0.5470 h1         1 CHO       0.035200
     74 H262        -7.8020     1.3380    -2.1150 h1         1 CHO       0.035200
@<TRIPOS>BOND
     1     1     2 1   
     2     1    12 1   
     3     1    33 1   
     4     1    34 1   
     5     2     3 1   
     6     2    35 1   
     7     2    36 1   
     8     3     4 1   
     9     3     5 1   
    10     3    37 1   
    11     4    38 1   
    12     5     6 1   
    13     5    39 1   
    14     5    40 1   
    15     6     7 1   
    16     6    12 1   
    17     6    41 1   
    18     7     8 1   
    19     7    42 1   
    20     7    43 1   
    21     8     9 1   
    22     8    10 1   
    23     8    44 1   
    24     9    45 1   
    25    10    11 1   
    26    10    16 1   
    27    10    46 1   
    28    11    12 1   
    29    11    13 1   
    30    11    47 1   
    31    12    21 1   
    32    13    14 1   
    33    13    48 1   
    34    13    49 1   
    35    14    15 1   
    36    14    50 1   
    37    14    51 1   
    38    15    16 1   
    39    15    19 1   
    40    15    20 1   
    41    16    17 1   
    42    16    52 1   
    43    17    18 1   
    44    17    53 1   
    45    17    54 1   
    46    18    19 1   
    47    18    55 1   
    48    18    56 1   
    49    19    22 1   
    50    19    57 1   
    51    20    58 1   
    52    20    59 1   
    53    20    60 1   
    54    21    61 1   
    55    21    62 1   
    56    21    63 1   
    57    22    23 1   
    58    22    24 1   
    59    22    64 1   
    60    23    65 1   
    61    23    66 1   
    62    23    67 1   
    63    24    25 1   
    64    24    68 1   
    65    24    69 1   
    66    25    26 1   
    67    25    70 1   
    68    25    71 1   
    69    26    27 2   
    70    26    28 1   
    71    28    29 1   
    72    28    72 1   
    73    29    30 1   
    74    29    73 1   
    75    29    74 1   
    76    30    31 1   
    77    30    32 1   
@<TRIPOS>SUBSTRUCTURE
     1 CHO         1 TEMP              0 ****  ****    0 ROOT
