@<TRIPOS>MOLECULE
CHP
   20    20     1     0     0
SMALL
bcc


@<TRIPOS>ATOM
      1 N           16.1300    25.3790    22.6640 n8         1 CHP      -0.891800
      2 CA          16.9640    26.1540    21.7620 c3         1 CHP       0.041800
      3 C           16.2460    26.5870    20.4440 c          1 CHP       0.911600
      4 O           16.6570    27.6290    19.9020 o          1 CHP      -0.823300
      5 OXT         15.3500    25.8220    20.0390 o          1 CHP      -0.823300
      6 C1          18.2040    25.3860    21.3540 ca         1 CHP      -0.031300
      7 C2          18.2950    24.0120    21.5240 ca         1 CHP      -0.074000
      8 C3          19.4200    23.3220    21.0960 ca         1 CHP      -0.067600
      9 CL3         19.5050    21.5970    21.3180 cl         1 CHP      -0.169400
     10 C4          20.4940    23.9690    20.4940 ca         1 CHP       0.109100
     11 O4          21.6060    23.3460    20.0670 oh         1 CHP      -0.510100
     12 C5          20.4030    25.3510    20.3310 ca         1 CHP      -0.169000
     13 C6          19.2790    26.0390    20.7480 ca         1 CHP      -0.084000
     14 H           15.4980    24.8310    22.0900 hn         1 CHP       0.335300
     15 H2          15.5300    26.0160    23.1730 hn         1 CHP       0.335300
     16 HA          17.2910    27.0560    22.2870 h1         1 CHP       0.047700
     17 HC2         17.4940    23.4700    22.0070 ha         1 CHP       0.156000
     18 HO4         21.5540    22.3960    20.2320 ho         1 CHP       0.423000
     19 H5          21.2290    25.8780    19.8700 ha         1 CHP       0.130000
     20 H6          19.2360    27.1100    20.6000 ha         1 CHP       0.154000
@<TRIPOS>BOND
     1     1     2 1   
     2     1    14 1   
     3     1    15 1   
     4     2     3 1   
     5     2     6 1   
     6     2    16 1   
     7     3     4 1   
     8     3     5 1   
     9     6     7 ar  
    10     6    13 ar  
    11     7     8 ar  
    12     7    17 1   
    13     8     9 1   
    14     8    10 ar  
    15    10    11 1   
    16    10    12 ar  
    17    11    18 1   
    18    12    13 ar  
    19    12    19 1   
    20    13    20 1   
@<TRIPOS>SUBSTRUCTURE
     1 CHP         1 TEMP              0 ****  ****    0 ROOT
