@<TRIPOS>MOLECULE
CHP
   20    20     1     0     0
SMALL
No Charge or Current Charge


@<TRIPOS>ATOM
      1 N           16.4910    25.9020    22.9680 n8         1 CHP      -0.891800
      2 CA          16.9820    26.2630    21.5820 c3         1 CHP       0.041800
      3 C           15.9310    26.2070    20.3880 c          1 CHP       0.911600
      4 O           15.9860    27.0680    19.5150 o          1 CHP      -0.823300
      5 OXT         15.0750    25.3270    20.3910 o          1 CHP      -0.823300
      6 C1          18.2290    25.4470    21.2310 ca         1 CHP      -0.031300
      7 C2          18.1460    24.0510    21.0440 ca         1 CHP      -0.074000
      8 C3          19.2930    23.3070    20.7170 ca         1 CHP      -0.067600
      9 Cl3         19.1560    21.5650    20.4880 cl         1 CHP      -0.169400
     10 C4          20.5360    23.9550    20.5760 ca         1 CHP       0.109100
     11 O4          21.6540    23.2420    20.2600 oh         1 CHP      -0.510100
     12 C5          20.6260    25.3420    20.7630 ca         1 CHP      -0.169000
     13 C6          19.4780    26.0870    21.0890 ca         1 CHP      -0.084000
     14 H           16.1240    24.9450    22.9450 hn         1 CHP       0.335300
     15 H2          15.6690    26.4740    23.1920 hn         1 CHP       0.335300
     16 HA          17.2840    27.3180    21.6420 h1         1 CHP       0.047700
     17 HC2         17.1900    23.5430    21.1510 ha         1 CHP       0.156000
     18 HO4         21.3910    22.3020    20.1720 ho         1 CHP       0.423000
     19 H5          21.5850    25.8420    20.6550 ha         1 CHP       0.130000
     20 H6          19.5600    27.1630    21.2330 ha         1 CHP       0.154000
@<TRIPOS>BOND
     1     1     2 1   
     2     1    14 1   
     3     1    15 1   
     4     2     3 1   
     5     2     6 1   
     6     2    16 1   
     7     3     4 1   
     8     3     5 1   
     9     6     7 ar  
    10     6    13 ar  
    11     7     8 ar  
    12     7    17 1   
    13     8     9 1   
    14     8    10 ar  
    15    10    11 1   
    16    10    12 ar  
    17    11    18 1   
    18    12    13 ar  
    19    12    19 1   
    20    13    20 1   
@<TRIPOS>SUBSTRUCTURE
     1 CHP         1 TEMP              0 ****  ****    0 ROOT
