@<TRIPOS>MOLECULE
CHQ
   31    33     1     0     0
SMALL
abcg2


@<TRIPOS>ATOM
      1 N           -0.7580    -0.1990     0.0620 ns         1 CHQ      -0.505900
      2 CA           0.6110     0.2520     0.2450 c6         1 CHQ       0.038700
      3 C            1.4060    -0.0450    -1.0230 c          1 CHQ       0.561000
      4 O            2.5550    -0.4590    -1.0020 o          1 CHQ      -0.550000
      5 CB           1.2350    -0.4180     1.4680 c3         1 CHQ       0.000900
      6 ND1         -0.3090    -0.9970     3.3740 na         1 CHQ      -0.303500
      7 CE1         -0.8350    -0.3790     4.4510 cc         1 CHQ       0.396400
      8 NE2         -0.4270     0.8610     4.5360 nd         1 CHQ      -0.668000
      9 CD2          0.4030     1.0440     3.4660 cd         1 CHQ       0.245900
     10 CG           0.4970    -0.1030     2.7250 cc         1 CHQ      -0.227300
     11 NP           0.7120     0.1880    -2.1410 n          1 CHQ      -0.407800
     12 CAP         -0.6450     0.7260    -2.1290 c5         1 CHQ       0.022700
     13 CP          -1.4670     0.0360    -1.0540 c          1 CHQ       0.555000
     14 OP          -2.6460    -0.2460    -1.1840 o          1 CHQ      -0.545000
     15 CBP         -1.1380     0.5330    -3.5650 c5         1 CHQ      -0.076400
     16 CGP         -0.1980    -0.5170    -4.1530 c5         1 CHQ      -0.098400
     17 CDP          1.1310    -0.2170    -3.4740 c5         1 CHQ       0.101000
     18 H           -1.2570    -0.5600     0.8630 hn         1 CHQ       0.327500
     19 HA           0.6310     1.3400     0.4030 h1         1 CHQ       0.070700
     20 HBC1         1.2770    -1.4980     1.3140 hc         1 CHQ       0.078700
     21 HBC2         2.2640    -0.0730     1.5540 hc         1 CHQ       0.078700
     22 HE1         -1.5030    -0.8790     5.1350 h5         1 CHQ       0.058100
     23 HD2          0.8930     1.9880     3.2750 h4         1 CHQ       0.039100
     24 HAP         -0.6300     1.7930    -1.8710 h1         1 CHQ       0.074700
     25 HBP1        -1.0430     1.4720    -4.1110 hc         1 CHQ       0.068700
     26 HBP2        -2.1860     0.2420    -3.5980 hc         1 CHQ       0.068700
     27 HGP1        -0.1320    -0.4600    -5.2390 hc         1 CHQ       0.060200
     28 HGP2        -0.5290    -1.5230    -3.8880 hc         1 CHQ       0.060200
     29 HDP1         1.6630     0.5960    -3.9760 h1         1 CHQ       0.061700
     30 HDP2         1.7970    -1.0760    -3.4200 h1         1 CHQ       0.061700
     31 HD1         -0.4540    -1.9630     3.1220 hn         1 CHQ       0.352000
@<TRIPOS>BOND
     1     1     2 1   
     2     1    13 1   
     3     1    18 1   
     4     2     3 1   
     5     2     5 1   
     6     2    19 1   
     7     3     4 2   
     8     3    11 1   
     9     5    10 1   
    10     5    20 1   
    11     5    21 1   
    12     6     7 1   
    13     6    10 1   
    14     6    31 1   
    15     7     8 2   
    16     7    22 1   
    17     8     9 1   
    18     9    10 2   
    19     9    23 1   
    20    11    12 1   
    21    11    17 1   
    22    12    13 1   
    23    12    15 1   
    24    12    24 1   
    25    13    14 2   
    26    15    16 1   
    27    15    25 1   
    28    15    26 1   
    29    16    17 1   
    30    16    27 1   
    31    16    28 1   
    32    17    29 1   
    33    17    30 1   
@<TRIPOS>SUBSTRUCTURE
     1 CHQ         1 TEMP              0 ****  ****    0 ROOT
