@<TRIPOS>MOLECULE
CHQ
   31    33     1     0     0
SMALL
No Charge or Current Charge


@<TRIPOS>ATOM
      1 N           -0.8000     0.0800     0.0790 ns         1 CHQ      -0.505900
      2 CA           0.6480     0.3930     0.2660 c6         1 CHQ       0.038700
      3 C            1.4730     0.1540    -1.0350 c          1 CHQ       0.561000
      4 O            2.6500    -0.1890    -1.0380 o          1 CHQ      -0.550000
      5 CB           1.2460    -0.3780     1.4760 c3         1 CHQ       0.000900
      6 ND1         -0.3000    -1.1440     3.3770 na         1 CHQ      -0.303500
      7 CE1         -0.8370    -0.5880     4.5130 cc         1 CHQ       0.396400
      8 NE2         -0.4420     0.6710     4.6420 nd         1 CHQ      -0.668000
      9 CD2          0.3730     0.9290     3.5570 cd         1 CHQ       0.245900
     10 CG           0.4740    -0.1830     2.7580 cc         1 CHQ      -0.227300
     11 NP           0.7240     0.2350    -2.2150 n          1 CHQ      -0.407800
     12 CAP         -0.6330     0.8360    -2.2310 c5         1 CHQ       0.022700
     13 CP          -1.5530     0.3760    -1.0450 c          1 CHQ       0.555000
     14 OP          -2.7620     0.2020    -1.0650 o          1 CHQ      -0.545000
     15 CBP         -1.1550     0.4320    -3.6510 c5         1 CHQ      -0.076400
     16 CGP         -0.2040    -0.7230    -4.0800 c5         1 CHQ      -0.098400
     17 CDP          1.1650    -0.2580    -3.5250 c5         1 CHQ       0.101000
     18 H           -1.3190    -0.2650     0.8790 hn         1 CHQ       0.327500
     19 HA           0.7240     1.4700     0.4720 h1         1 CHQ       0.070700
     20 HBC1         1.2960    -1.4480     1.2370 hc         1 CHQ       0.078700
     21 HBC2         2.2840    -0.0610     1.6380 hc         1 CHQ       0.078700
     22 HE1         -1.4870    -1.1370     5.1840 h5         1 CHQ       0.058100
     23 HD2          0.8390     1.8960     3.4110 h4         1 CHQ       0.039100
     24 HAP         -0.5590     1.9280    -2.1490 h1         1 CHQ       0.074700
     25 HBP1        -1.0620     1.2780    -4.3420 hc         1 CHQ       0.068700
     26 HBP2        -2.2090     0.1340    -3.6610 hc         1 CHQ       0.068700
     27 HGP1        -0.1860    -0.8760    -5.1650 hc         1 CHQ       0.060200
     28 HGP2        -0.5090    -1.6720    -3.6220 hc         1 CHQ       0.060200
     29 HDP1         1.6040     0.5510    -4.1250 h1         1 CHQ       0.061700
     30 HDP2         1.8860    -1.0830    -3.4510 h1         1 CHQ       0.061700
     31 HD1         -0.4530    -2.0990     3.0740 hn         1 CHQ       0.352000
@<TRIPOS>BOND
     1     1     2 1   
     2     1    13 1   
     3     1    18 1   
     4     2     3 1   
     5     2     5 1   
     6     2    19 1   
     7     3     4 2   
     8     3    11 1   
     9     5    10 1   
    10     5    20 1   
    11     5    21 1   
    12     6     7 1   
    13     6    10 1   
    14     6    31 1   
    15     7     8 2   
    16     7    22 1   
    17     8     9 1   
    18     9    10 2   
    19     9    23 1   
    20    11    12 1   
    21    11    17 1   
    22    12    13 1   
    23    12    15 1   
    24    12    24 1   
    25    13    14 2   
    26    15    16 1   
    27    15    25 1   
    28    15    26 1   
    29    16    17 1   
    30    16    27 1   
    31    16    28 1   
    32    17    29 1   
    33    17    30 1   
@<TRIPOS>SUBSTRUCTURE
     1 CHQ         1 TEMP              0 ****  ****    0 ROOT
