@<TRIPOS>MOLECULE
CHS
   35    35     1     0     0
SMALL
bcc


@<TRIPOS>ATOM
      1 N           -0.4730     1.7380     0.3570 n8         1 CHS      -0.883800
      2 CA          -0.2300     0.2980     0.3740 c3         1 CHS       0.120500
      3 CB           0.6790    -0.1970    -0.7550 c3         1 CHS      -0.109400
      4 CG           0.2280     0.1580    -2.1700 c6         1 CHS      -0.061700
      5 CD1          1.2860    -0.2600    -3.1910 c6         1 CHS      -0.072900
      6 CD2         -1.1210    -0.4650    -2.5360 c6         1 CHS      -0.072900
      7 CE1          0.8780     0.0890    -4.6180 c6         1 CHS      -0.072900
      8 CE2         -1.5390    -0.1220    -3.9630 c6         1 CHS      -0.072900
      9 CZ          -0.4710    -0.5270    -4.9730 c6         1 CHS      -0.073400
     10 CH           0.3320    -0.1020     1.7480 c3         1 CHS       0.176100
     11 OH           1.4680     0.6830     2.0710 oh         1 CHS      -0.598800
     12 CM          -0.7150    -0.0270     2.8480 c3         1 CHS      -0.232400
     13 C           -0.1700    -0.4440     4.2240 c          1 CHS       0.933600
     14 O            0.4570    -1.5230     4.2710 o          1 CHS      -0.845300
     15 OXT         -0.4130     0.3060     5.1910 o          1 CHS      -0.845300
     16 H           -1.1920     1.9660    -0.3170 hn         1 CHS       0.324300
     17 H2           0.3560     2.2300     0.0440 hn         1 CHS       0.324300
     18 HA          -1.2030    -0.1930     0.2760 h1         1 CHS       0.048700
     19 HB2          1.6860     0.2050    -0.5930 hc         1 CHS       0.050700
     20 HB3          0.7740    -1.2870    -0.6760 hc         1 CHS       0.050700
     21 HG           0.1240     1.2490    -2.2380 hc         1 CHS       0.032700
     22 HD12         2.2420     0.2120    -2.9450 hc         1 CHS       0.040950
     23 HD13         1.4480    -1.3430    -3.1130 hc         1 CHS       0.040950
     24 HD23        -1.0460    -1.5540    -2.4310 hc         1 CHS       0.040950
     25 HD22        -1.8980    -0.1410    -1.8380 hc         1 CHS       0.040950
     26 HE12         0.8140     1.1780    -4.7190 hc         1 CHS       0.031950
     27 HE13         1.6450    -0.2440    -5.3230 hc         1 CHS       0.031950
     28 HE23        -1.7150     0.9570    -4.0390 hc         1 CHS       0.031950
     29 HE22        -2.4890    -0.6060    -4.2030 hc         1 CHS       0.031950
     30 HZ2         -0.7710    -0.2310    -5.9820 hc         1 CHS       0.031200
     31 HZ3         -0.3800    -1.6180    -4.9850 hc         1 CHS       0.031200
     32 HH           0.6940    -1.1320     1.6870 h1         1 CHS       0.076700
     33 HO           1.1570     1.5890     2.1820 ho         1 CHS       0.396000
     34 HM1         -1.1440     0.9780     2.8830 hc         1 CHS       0.025700
     35 HM2         -1.5370    -0.7030     2.5840 hc         1 CHS       0.025700
@<TRIPOS>BOND
     1     1     2 1   
     2     1    16 1   
     3     1    17 1   
     4     2     3 1   
     5     2    10 1   
     6     2    18 1   
     7     3     4 1   
     8     3    19 1   
     9     3    20 1   
    10     4     5 1   
    11     4     6 1   
    12     4    21 1   
    13     5     7 1   
    14     5    22 1   
    15     5    23 1   
    16     6     8 1   
    17     6    24 1   
    18     6    25 1   
    19     7     9 1   
    20     7    26 1   
    21     7    27 1   
    22     8     9 1   
    23     8    28 1   
    24     8    29 1   
    25     9    30 1   
    26     9    31 1   
    27    10    11 1   
    28    10    12 1   
    29    10    32 1   
    30    11    33 1   
    31    12    13 1   
    32    12    34 1   
    33    12    35 1   
    34    13    14 1   
    35    13    15 1   
@<TRIPOS>SUBSTRUCTURE
     1 CHS         1 TEMP              0 ****  ****    0 ROOT
