@<TRIPOS>MOLECULE
CHS
   35    35     1     0     0
SMALL
No Charge or Current Charge


@<TRIPOS>ATOM
      1 N           -0.3630     1.8600     0.3560 n8         1 CHS      -0.883800
      2 CA          -0.1910     0.3860     0.4170 c3         1 CHS       0.120500
      3 CB           0.7470    -0.0830    -0.7300 c3         1 CHS      -0.109400
      4 CG           0.2770     0.2080    -2.1940 c6         1 CHS      -0.061700
      5 CD1          1.3710    -0.2230    -3.2140 c6         1 CHS      -0.072900
      6 CD2         -1.0770    -0.4820    -2.5390 c6         1 CHS      -0.072900
      7 CE1          0.9400     0.0610    -4.6740 c6         1 CHS      -0.072900
      8 CE2         -1.5050    -0.2030    -4.0020 c6         1 CHS      -0.072900
      9 CZ          -0.4050    -0.6280    -5.0030 c6         1 CHS      -0.073400
     10 CH           0.3250    -0.0500     1.8280 c3         1 CHS       0.176100
     11 OH           1.4090     0.8170     2.1630 oh         1 CHS      -0.598800
     12 CM          -0.7610     0.0510     2.9240 c3         1 CHS      -0.232400
     13 C           -0.2970    -0.6920     4.1810 c          1 CHS       0.933600
     14 O           -0.4760    -1.9030     4.2350 o          1 CHS      -0.845300
     15 OXT          0.2280    -0.0590     5.0890 o          1 CHS      -0.845300
     16 H           -1.1460     2.1290     0.9600 hn         1 CHS       0.324300
     17 H2          -0.6690     2.1160    -0.5870 hn         1 CHS       0.324300
     18 HA          -1.1740    -0.0780     0.2590 h1         1 CHS       0.048700
     19 HB2          1.7330     0.3720    -0.5750 hc         1 CHS       0.050700
     20 HB3          0.9020    -1.1630    -0.6190 hc         1 CHS       0.050700
     21 HG           0.1470     1.2960    -2.2810 hc         1 CHS       0.032700
     22 HD12         2.3100     0.3080    -3.0030 hc         1 CHS       0.040950
     23 HD13         1.5870    -1.2940    -3.0980 hc         1 CHS       0.040950
     24 HD23        -0.9940    -1.5660    -2.3810 hc         1 CHS       0.040950
     25 HD22        -1.8700    -0.1280    -1.8680 hc         1 CHS       0.040950
     26 HE12         0.8480     1.1450    -4.8290 hc         1 CHS       0.031950
     27 HE13         1.7170    -0.2890    -5.3660 hc         1 CHS       0.031950
     28 HE23        -1.7240     0.8670    -4.1250 hc         1 CHS       0.031950
     29 HE22        -2.4380    -0.7390    -4.2240 hc         1 CHS       0.031950
     30 HZ2         -0.7140    -0.3750    -6.0260 hc         1 CHS       0.031200
     31 HZ3         -0.2790    -1.7200    -4.9740 hc         1 CHS       0.031200
     32 HH           0.6630    -1.0960     1.7680 h1         1 CHS       0.076700
     33 HO           1.2110     1.6190     1.6270 ho         1 CHS       0.396000
     34 HM1         -0.9340     1.1140     3.1310 hc         1 CHS       0.025700
     35 HM2         -1.6360    -0.4620     2.5060 hc         1 CHS       0.025700
@<TRIPOS>BOND
     1     1     2 1   
     2     1    16 1   
     3     1    17 1   
     4     2     3 1   
     5     2    10 1   
     6     2    18 1   
     7     3     4 1   
     8     3    19 1   
     9     3    20 1   
    10     4     5 1   
    11     4     6 1   
    12     4    21 1   
    13     5     7 1   
    14     5    22 1   
    15     5    23 1   
    16     6     8 1   
    17     6    24 1   
    18     6    25 1   
    19     7     9 1   
    20     7    26 1   
    21     7    27 1   
    22     8     9 1   
    23     8    28 1   
    24     8    29 1   
    25     9    30 1   
    26     9    31 1   
    27    10    11 1   
    28    10    12 1   
    29    10    32 1   
    30    11    33 1   
    31    12    13 1   
    32    12    34 1   
    33    12    35 1   
    34    13    14 1   
    35    13    15 1   
@<TRIPOS>SUBSTRUCTURE
     1 CHS         1 TEMP              0 ****  ****    0 ROOT
