@<TRIPOS>MOLECULE
CHT
   21    20     1     0     0
SMALL
No Charge or Current Charge


@<TRIPOS>ATOM
      1 C4           1.7120    -0.7880     0.1200 c3         1 CHT       0.148600
      2 C5           0.2840    -0.7120     0.7210 c3         1 CHT       0.096600
      3 C6          -1.0280    -0.5650    -1.4440 c3         1 CHT       0.076900
      4 C7          -0.4470     1.5340    -0.1980 c3         1 CHT       0.076900
      5 C8          -2.1340    -0.0510     0.7370 c3         1 CHT       0.076900
      6 O6           2.4000     0.4650     0.2740 oh         1 CHT      -0.667000
      7 N1          -0.8200     0.0510    -0.0510 n4         1 CHT      -0.495000
      8 HC41         2.2600    -1.5810     0.6480 h1         1 CHT       0.058200
      9 HC42         1.6530    -1.0800    -0.9370 h1         1 CHT       0.058200
     10 HC51         0.3580    -0.2730     1.7180 hx         1 CHT       0.101700
     11 HC52        -0.0730    -1.7370     0.8420 hx         1 CHT       0.101700
     12 H61         -0.1090    -0.4650    -2.0250 hx         1 CHT       0.097922
     13 H62         -1.2840    -1.6210    -1.3380 hx         1 CHT       0.097922
     14 H63         -1.8390    -0.0400    -1.9520 hx         1 CHT       0.097922
     15 H71         -1.2560     2.0630    -0.7060 hx         1 CHT       0.097922
     16 H72         -0.2890     1.9660     0.7920 hx         1 CHT       0.097922
     17 H73          0.4710     1.6180    -0.7830 hx         1 CHT       0.097922
     18 H81         -2.4140    -1.1020     0.8410 hx         1 CHT       0.097922
     19 H82         -1.9970     0.3910     1.7260 hx         1 CHT       0.097922
     20 H83         -2.9200     0.4860     0.2010 hx         1 CHT       0.097922
     21 HO6          3.3120     0.3430    -0.0780 ho         1 CHT       0.485000
@<TRIPOS>BOND
     1     1     2 1   
     2     1     6 1   
     3     1     8 1   
     4     1     9 1   
     5     2     7 1   
     6     2    10 1   
     7     2    11 1   
     8     3     7 1   
     9     3    12 1   
    10     3    13 1   
    11     3    14 1   
    12     4     7 1   
    13     4    15 1   
    14     4    16 1   
    15     4    17 1   
    16     5     7 1   
    17     5    18 1   
    18     5    19 1   
    19     5    20 1   
    20     6    21 1   
@<TRIPOS>SUBSTRUCTURE
     1 CHT         1 TEMP              0 ****  ****    0 ROOT
