@<TRIPOS>MOLECULE
CHT
   21    20     1     0     0
SMALL
abcg2


@<TRIPOS>ATOM
      1 C4           1.6400    -0.8200     0.1380 c3         1 CHT       0.148600
      2 C5           0.2690    -0.6730     0.7540 c3         1 CHT       0.096600
      3 C6          -0.9220    -0.5080    -1.4050 c3         1 CHT       0.076900
      4 C7          -0.4610     1.5260    -0.1500 c3         1 CHT       0.076900
      5 C8          -2.0700    -0.0770     0.6810 c3         1 CHT       0.076900
      6 O6           2.3070     0.4150     0.1040 oh         1 CHT      -0.667000
      7 N1          -0.7740     0.0710    -0.0430 n4         1 CHT      -0.495000
      8 HC41         2.1550    -1.5450     0.7800 h1         1 CHT       0.058200
      9 HC42         1.5750    -1.2840    -0.8520 h1         1 CHT       0.058200
     10 HC51         0.3350    -0.1730     1.7200 hx         1 CHT       0.101700
     11 HC52        -0.1350    -1.6720     0.9220 hx         1 CHT       0.101700
     12 H61         -0.0170    -0.3410    -1.9800 hx         1 CHT       0.097922
     13 H62         -1.1170    -1.5740    -1.3210 hx         1 CHT       0.097922
     14 H63         -1.7570    -0.0230    -1.9030 hx         1 CHT       0.097922
     15 H71         -1.3000     2.0230    -0.6280 hx         1 CHT       0.097922
     16 H72         -0.3160     1.9290     0.8480 hx         1 CHT       0.097922
     17 H73          0.4360     1.6670    -0.7400 hx         1 CHT       0.097922
     18 H81         -2.3360    -1.1300     0.7270 hx         1 CHT       0.097922
     19 H82         -1.9650     0.3210     1.6870 hx         1 CHT       0.097922
     20 H83         -2.8400     0.4710     0.1460 hx         1 CHT       0.097922
     21 HO6          3.1330     0.3000    -0.3760 ho         1 CHT       0.485000
@<TRIPOS>BOND
     1     1     2 1   
     2     1     6 1   
     3     1     8 1   
     4     1     9 1   
     5     2     7 1   
     6     2    10 1   
     7     2    11 1   
     8     3     7 1   
     9     3    12 1   
    10     3    13 1   
    11     3    14 1   
    12     4     7 1   
    13     4    15 1   
    14     4    16 1   
    15     4    17 1   
    16     5     7 1   
    17     5    18 1   
    18     5    19 1   
    19     5    20 1   
    20     6    21 1   
@<TRIPOS>SUBSTRUCTURE
     1 CHT         1 TEMP              0 ****  ****    0 ROOT
