@<TRIPOS>MOLECULE
CHU
   51    54     1     0     0
SMALL
No Charge or Current Charge


@<TRIPOS>ATOM
      1 C4           4.1790     0.3700     1.3730 ca         1 CHU      -0.129000
      2 C5           2.8600     0.7550     1.0930 ca         1 CHU       0.178100
      3 C6           2.5090     1.3170    -0.1490 ca         1 CHU      -0.154800
      4 C7           1.1180     1.7070    -0.4370 cc         1 CHU       0.047600
      5 C8           0.2260     1.5870     0.6280 cd         1 CHU      -0.223400
      6 C13         -1.2380     2.0120     0.5630 c3         1 CHU       0.024100
      7 C20          7.5040    -2.0740    -1.8580 ca         1 CHU       0.143400
      8 C22         -3.5710     0.9520     0.6210 ca         1 CHU       0.103000
      9 C26         -1.8210    -0.2590    -0.4990 ca         1 CHU      -0.177000
     10 C1           5.1790     0.5410     0.4110 ca         1 CHU       0.168100
     11 C2           4.8620     1.1310    -0.8230 ca         1 CHU      -0.137000
     12 C3           3.5390     1.5150    -1.1030 ca         1 CHU      -0.047000
     13 C9           0.6280     0.9900     1.9410 c          1 CHU       0.671300
     14 O10          1.9220     0.5890     2.0650 os         1 CHU      -0.324200
     15 O11         -0.1500     0.8450     2.8750 o          1 CHU      -0.480000
     16 C12          0.7060     2.1970    -1.8130 c3         1 CHU      -0.069900
     17 C14         -2.2190     0.8860     0.2260 ca         1 CHU      -0.043300
     18 O15          6.4710     0.1740     0.7130 os         1 CHU      -0.344400
     19 C16          7.2750    -0.5300    -0.1560 ca         1 CHU       0.347300
     20 N17          8.6040    -0.3110    -0.0550 nb         1 CHU      -0.205000
     21 C18          9.4120    -0.9950    -0.8880 ca         1 CHU       0.143400
     22 C19          8.8960    -1.9030    -1.8240 ca         1 CHU      -0.252000
     23 N21          6.6940    -1.3920    -1.0260 nb         1 CHU      -0.205000
     24 C23         -4.4380    -0.1130     0.2720 ca         1 CHU       0.596900
     25 N24         -4.0520    -1.2090    -0.3980 nb         1 CHU      -0.746000
     26 C25         -2.7560    -1.2720    -0.7810 ca         1 CHU       0.374900
     27 N27         -5.7520    -0.1640     0.6420 nu         1 CHU      -0.917000
     28 S28         -6.9710    -0.0500    -0.4140 s6         1 CHU       1.299200
     29 N29         -6.8630    -1.5200    -1.1260 n7         1 CHU      -0.865300
     30 C30         -7.7230    -2.6120    -0.6380 c3         1 CHU       0.176100
     31 O31         -8.1890     0.0090     0.3860 o          1 CHU      -0.539000
     32 O32         -6.6280     0.9730    -1.3960 o          1 CHU      -0.539000
     33 H1           4.4250    -0.0610     2.3390 ha         1 CHU       0.156000
     34 H2          -1.5240     2.4720     1.5170 hc         1 CHU       0.074700
     35 H3          -1.3720     2.8300    -0.1540 hc         1 CHU       0.074700
     36 H4           7.0310    -2.7630    -2.5560 h4         1 CHU       0.031100
     37 H5          -0.7990    -0.3820    -0.8450 ha         1 CHU       0.129000
     38 H6           5.6390     1.2980    -1.5650 ha         1 CHU       0.135000
     39 H7           3.3350     1.9750    -2.0660 ha         1 CHU       0.122000
     40 H8           0.9690     3.2530    -1.9450 hc         1 CHU       0.057033
     41 H9           1.1970     1.6190    -2.6040 hc         1 CHU       0.057033
     42 H10         -0.3680     2.0890    -1.9960 hc         1 CHU       0.057033
     43 H11         10.4820    -0.8120    -0.8020 h4         1 CHU       0.031100
     44 H12          9.5490    -2.4540    -2.4960 ha         1 CHU       0.142000
     45 H13         -2.4570    -2.1620    -1.3320 h4         1 CHU       0.028100
     46 H14         -6.0030     0.5700     1.2860 hn         1 CHU       0.535000
     47 H15         -5.9050    -1.6920    -0.7960 hn         1 CHU       0.497000
     48 H16         -7.4560    -3.5600    -1.1250 h1         1 CHU       0.052367
     49 H17         -7.6160    -2.7500     0.4470 h1         1 CHU       0.052367
     50 H18         -8.7810    -2.4100    -0.8560 h1         1 CHU       0.052367
     51 F33         -4.0360     2.0210     1.3170 f          1 CHU      -0.160000
@<TRIPOS>BOND
     1     1     2 ar  
     2     1    10 ar  
     3     1    33 1   
     4     2     3 ar  
     5     2    14 1   
     6     3     4 1   
     7     3    12 ar  
     8     4     5 2   
     9     4    16 1   
    10     5     6 1   
    11     5    13 1   
    12     6    17 1   
    13     6    34 1   
    14     6    35 1   
    15     7    22 ar  
    16     7    23 ar  
    17     7    36 1   
    18     8    17 ar  
    19     8    24 ar  
    20     8    51 1   
    21     9    17 ar  
    22     9    26 ar  
    23     9    37 1   
    24    10    11 ar  
    25    10    18 1   
    26    11    12 ar  
    27    11    38 1   
    28    12    39 1   
    29    13    14 1   
    30    13    15 2   
    31    16    40 1   
    32    16    41 1   
    33    16    42 1   
    34    18    19 1   
    35    19    20 ar  
    36    19    23 ar  
    37    20    21 ar  
    38    21    22 ar  
    39    21    43 1   
    40    22    44 1   
    41    24    25 ar  
    42    24    27 1   
    43    25    26 ar  
    44    26    45 1   
    45    27    28 1   
    46    27    46 1   
    47    28    29 1   
    48    28    31 2   
    49    28    32 2   
    50    29    30 1   
    51    29    47 1   
    52    30    48 1   
    53    30    49 1   
    54    30    50 1   
@<TRIPOS>SUBSTRUCTURE
     1 CHU         1 TEMP              0 ****  ****    0 ROOT
