@<TRIPOS>MOLECULE
CHU
   51    54     1     0     0
SMALL
abcg2


@<TRIPOS>ATOM
      1 C4           3.6110     0.1170     1.1410 ca         1 CHU      -0.129000
      2 C5           2.4310     0.7680     0.8070 ca         1 CHU       0.178100
      3 C6           2.3570     1.6900    -0.2330 ca         1 CHU      -0.154800
      4 C7           1.0860     2.3380    -0.5030 cc         1 CHU       0.047600
      5 C8           0.0190     2.0320     0.2770 cd         1 CHU      -0.223400
      6 C13         -1.3570     2.6250     0.1540 c3         1 CHU       0.024100
      7 C20          6.4770    -2.4900    -1.7070 ca         1 CHU       0.143400
      8 C22         -3.4490     1.2190     0.3430 ca         1 CHU       0.103000
      9 C26         -2.1820     1.0470    -1.6360 ca         1 CHU      -0.177000
     10 C1           4.7460     0.4140     0.4170 ca         1 CHU       0.168100
     11 C2           4.7190     1.3270    -0.6330 ca         1 CHU      -0.137000
     12 C3           3.5330     1.9520    -0.9480 ca         1 CHU      -0.047000
     13 C9           0.1380     1.0450     1.3430 c          1 CHU       0.671300
     14 O10          1.3430     0.4640     1.5440 os         1 CHU      -0.324200
     15 O11         -0.7640     0.7000     2.0650 o          1 CHU      -0.480000
     16 C12          1.0390     3.3170    -1.6310 c3         1 CHU      -0.069900
     17 C14         -2.3460     1.6180    -0.3710 ca         1 CHU      -0.043300
     18 O15          5.9300    -0.1540     0.8130 os         1 CHU      -0.344400
     19 C16          6.5070    -1.0970     0.0480 ca         1 CHU       0.347300
     20 N17          7.6990    -1.4640     0.4790 nb         1 CHU      -0.205000
     21 C18          8.3050    -2.4020    -0.2360 ca         1 CHU       0.143400
     22 C19          7.7310    -2.9620    -1.3660 ca         1 CHU      -0.252000
     23 N21          5.8540    -1.5540    -0.9990 nb         1 CHU      -0.205000
     24 C23         -4.3400     0.2790    -0.1820 ca         1 CHU       0.596900
     25 N24         -4.1670    -0.2480    -1.3770 nb         1 CHU      -0.746000
     26 C25         -3.1090     0.1350    -2.0900 ca         1 CHU       0.374900
     27 N27         -5.4270    -0.1280     0.5660 nu         1 CHU      -0.917000
     28 S28         -6.6270    -1.1350    -0.0060 s6         1 CHU       1.299200
     29 N29         -5.9260    -2.5340    -0.4700 n7         1 CHU      -0.865300
     30 C30         -5.1460    -3.2750     0.5130 c3         1 CHU       0.176100
     31 O31         -7.4300    -1.3930     1.1700 o          1 CHU      -0.539000
     32 O32         -7.2220    -0.5500    -1.1860 o          1 CHU      -0.539000
     33 H1           3.6360    -0.5920     1.9590 ha         1 CHU       0.156000
     34 H2          -1.6710     3.0090     1.1240 hc         1 CHU       0.074700
     35 H3          -1.3530     3.4810    -0.5190 hc         1 CHU       0.074700
     36 H4           5.9490    -2.8730    -2.5720 h4         1 CHU       0.031100
     37 H5          -1.3370     1.3180    -2.2560 ha         1 CHU       0.129000
     38 H6           5.6190     1.5540    -1.1880 ha         1 CHU       0.135000
     39 H7           3.5250     2.6640    -1.7610 ha         1 CHU       0.122000
     40 H8           1.7390     4.1350    -1.4540 hc         1 CHU       0.057033
     41 H9           1.3370     2.8370    -2.5650 hc         1 CHU       0.057033
     42 H10          0.0560     3.7500    -1.7810 hc         1 CHU       0.057033
     43 H11          9.2840    -2.7150     0.1070 h4         1 CHU       0.031100
     44 H12          8.2330    -3.7230    -1.9440 ha         1 CHU       0.142000
     45 H13         -3.0030    -0.3150    -3.0690 h4         1 CHU       0.028100
     46 H14         -5.5140     0.1540     1.5330 hn         1 CHU       0.535000
     47 H15         -5.4490    -2.4160    -1.3580 hn         1 CHU       0.497000
     48 H16         -4.8520    -4.2150     0.0550 h1         1 CHU       0.052367
     49 H17         -4.2450    -2.7470     0.8320 h1         1 CHU       0.052367
     50 H18         -5.7550    -3.5010     1.3850 h1         1 CHU       0.052367
     51 F33         -3.7100     1.7180     1.5590 f          1 CHU      -0.160000
@<TRIPOS>BOND
     1     1     2 ar  
     2     1    10 ar  
     3     1    33 1   
     4     2     3 ar  
     5     2    14 1   
     6     3     4 1   
     7     3    12 ar  
     8     4     5 2   
     9     4    16 1   
    10     5     6 1   
    11     5    13 1   
    12     6    17 1   
    13     6    34 1   
    14     6    35 1   
    15     7    22 ar  
    16     7    23 ar  
    17     7    36 1   
    18     8    17 ar  
    19     8    24 ar  
    20     8    51 1   
    21     9    17 ar  
    22     9    26 ar  
    23     9    37 1   
    24    10    11 ar  
    25    10    18 1   
    26    11    12 ar  
    27    11    38 1   
    28    12    39 1   
    29    13    14 1   
    30    13    15 2   
    31    16    40 1   
    32    16    41 1   
    33    16    42 1   
    34    18    19 1   
    35    19    20 ar  
    36    19    23 ar  
    37    20    21 ar  
    38    21    22 ar  
    39    21    43 1   
    40    22    44 1   
    41    24    25 ar  
    42    24    27 1   
    43    25    26 ar  
    44    26    45 1   
    45    27    28 1   
    46    27    46 1   
    47    28    29 1   
    48    28    31 2   
    49    28    32 2   
    50    29    30 1   
    51    29    47 1   
    52    30    48 1   
    53    30    49 1   
    54    30    50 1   
@<TRIPOS>SUBSTRUCTURE
     1 CHU         1 TEMP              0 ****  ****    0 ROOT
