@<TRIPOS>MOLECULE
CHV
   30    32     1     0     0
SMALL
No Charge or Current Charge


@<TRIPOS>ATOM
      1 C1          -0.7410    -0.5210     1.2980 c          1 CHV       0.660300
      2 O11          0.0630    -0.5280     2.2220 o          1 CHV      -0.471000
      3 C2          -0.4740    -1.1400    -0.0360 cc         1 CHV      -0.060100
      4 O13          0.7150    -1.7400    -0.3930 os         1 CHV      -0.242200
      5 C14          1.7790    -0.8480    -0.3120 ca         1 CHV       0.000100
      6 C15          3.0570    -1.3670    -0.0110 ca         1 CHV       0.174100
      7 O20          3.2140    -2.7040     0.2170 oh         1 CHV      -0.518100
      8 C16          4.1720    -0.5190     0.0650 ca         1 CHV      -0.137000
      9 C17          4.0240     0.8550    -0.1720 ca         1 CHV       0.152000
     10 Cl1          5.4230     1.9170    -0.0790 cl         1 CHV      -0.196000
     11 C18          2.7650     1.3830    -0.4970 ca         1 CHV      -0.131000
     12 C19          1.6420     0.5390    -0.5750 ca         1 CHV      -0.092000
     13 C3          -1.4010    -1.1200    -1.0490 cd         1 CHV      -0.070200
     14 C4          -2.6890    -0.4760    -0.8080 ca         1 CHV      -0.190800
     15 C5          -2.9320     0.1050     0.4510 ca         1 CHV       0.213100
     16 O6          -1.9760     0.0660     1.4400 os         1 CHV      -0.330200
     17 C7          -4.1570     0.7340     0.7150 ca         1 CHV      -0.240000
     18 C8          -5.1430     0.7840    -0.2800 ca         1 CHV       0.197100
     19 O12         -6.3360     1.3920    -0.0330 oh         1 CHV      -0.520100
     20 C9          -4.9060     0.2070    -1.5360 ca         1 CHV      -0.170000
     21 C10         -3.6790    -0.4240    -1.8060 ca         1 CHV      -0.013000
     22 H1           2.3280    -3.1160     0.1150 ho         1 CHV       0.487000
     23 H2           5.1500    -0.9260     0.3060 ha         1 CHV       0.148000
     24 H3           2.6600     2.4470    -0.6940 ha         1 CHV       0.133000
     25 H4           0.6840     0.9720    -0.8530 ha         1 CHV       0.123000
     26 H5          -1.1690    -1.5700    -2.0120 ha         1 CHV       0.207000
     27 H6          -4.3290     1.1770     1.6920 ha         1 CHV       0.142000
     28 H7          -6.3230     1.7330     0.8860 ho         1 CHV       0.477000
     29 H8          -5.6740     0.2490    -2.3040 ha         1 CHV       0.140000
     30 H9          -3.5020    -0.8690    -2.7830 ha         1 CHV       0.125000
@<TRIPOS>BOND
     1     1     2 2   
     2     1     3 1   
     3     1    16 1   
     4     3     4 1   
     5     3    13 2   
     6     4     5 1   
     7     5     6 ar  
     8     5    12 ar  
     9     6     7 1   
    10     6     8 ar  
    11     7    22 1   
    12     8     9 ar  
    13     8    23 1   
    14     9    10 1   
    15     9    11 ar  
    16    11    12 ar  
    17    11    24 1   
    18    12    25 1   
    19    13    14 1   
    20    13    26 1   
    21    14    15 ar  
    22    14    21 ar  
    23    15    16 1   
    24    15    17 ar  
    25    17    18 ar  
    26    17    27 1   
    27    18    19 1   
    28    18    20 ar  
    29    19    28 1   
    30    20    21 ar  
    31    20    29 1   
    32    21    30 1   
@<TRIPOS>SUBSTRUCTURE
     1 CHV         1 TEMP              0 ****  ****    0 ROOT
