@<TRIPOS>MOLECULE
CHV
   30    32     1     0     0
SMALL
abcg2


@<TRIPOS>ATOM
      1 C1          -0.7150    -0.6620     1.0480 c          1 CHV       0.660300
      2 O11          0.0810    -0.7810     1.9430 o          1 CHV      -0.471000
      3 C2          -0.4690    -1.0130    -0.3440 cc         1 CHV      -0.060100
      4 O13          0.7500    -1.5490    -0.6260 os         1 CHV      -0.242200
      5 C14          1.8420    -0.7250    -0.4670 ca         1 CHV       0.000100
      6 C15          2.8900    -1.2150     0.3170 ca         1 CHV       0.174100
      7 O20          2.8240    -2.4000     0.9390 oh         1 CHV      -0.518100
      8 C16          4.0430    -0.4530     0.4520 ca         1 CHV      -0.137000
      9 C17          4.1200     0.7810    -0.1730 ca         1 CHV       0.152000
     10 CL1          5.5640     1.7220     0.0150 cl         1 CHV      -0.196000
     11 C18          3.0780     1.2810    -0.9360 ca         1 CHV      -0.131000
     12 C19          1.9330     0.5100    -1.0780 ca         1 CHV      -0.092000
     13 C3          -1.4220    -0.8730    -1.2810 cd         1 CHV      -0.070200
     14 C4          -2.7100    -0.3720    -0.9180 ca         1 CHV      -0.190800
     15 C5          -2.9270    -0.0240     0.4150 ca         1 CHV       0.213100
     16 O6          -1.9400    -0.1660     1.3320 os         1 CHV      -0.330200
     17 C7          -4.1410     0.4720     0.8610 ca         1 CHV      -0.240000
     18 C8          -5.1730     0.6280    -0.0570 ca         1 CHV       0.197100
     19 O12         -6.3760     1.0960     0.2920 oh         1 CHV      -0.520100
     20 C9          -4.9820     0.2890    -1.4050 ca         1 CHV      -0.170000
     21 C10         -3.7680    -0.2030    -1.8200 ca         1 CHV      -0.013000
     22 H1           1.9390    -2.7760     0.8480 ho         1 CHV       0.487000
     23 H2           4.8600    -0.8240     1.0570 ha         1 CHV       0.148000
     24 H3           3.1500     2.2450    -1.4180 ha         1 CHV       0.133000
     25 H4           1.1130     0.8780    -1.6830 ha         1 CHV       0.123000
     26 H5          -1.2240    -1.1500    -2.3100 ha         1 CHV       0.207000
     27 H6          -4.2740     0.7260     1.9060 ha         1 CHV       0.142000
     28 H7          -6.4090     1.3010     1.2340 ho         1 CHV       0.477000
     29 H8          -5.7940     0.4160    -2.1080 ha         1 CHV       0.140000
     30 H9          -3.6200    -0.4640    -2.8600 ha         1 CHV       0.125000
@<TRIPOS>BOND
     1     1     2 2   
     2     1     3 1   
     3     1    16 1   
     4     3     4 1   
     5     3    13 2   
     6     4     5 1   
     7     5     6 ar  
     8     5    12 ar  
     9     6     7 1   
    10     6     8 ar  
    11     7    22 1   
    12     8     9 ar  
    13     8    23 1   
    14     9    10 1   
    15     9    11 ar  
    16    11    12 ar  
    17    11    24 1   
    18    12    25 1   
    19    13    14 1   
    20    13    26 1   
    21    14    15 ar  
    22    14    21 ar  
    23    15    16 1   
    24    15    17 ar  
    25    17    18 ar  
    26    17    27 1   
    27    18    19 1   
    28    18    20 ar  
    29    19    28 1   
    30    20    21 ar  
    31    20    29 1   
    32    21    30 1   
@<TRIPOS>SUBSTRUCTURE
     1 CHV         1 TEMP              0 ****  ****    0 ROOT
