@<TRIPOS>MOLECULE
CHW
   49    49     1     0     0
SMALL
No Charge or Current Charge


@<TRIPOS>ATOM
      1 OAA          2.4730     2.4900     0.5100 oh         1 CHW      -0.533100
      2 CAB          2.7950     1.1800     0.3330 ca         1 CHW       0.277100
      3 CAC          2.0250     0.1910     0.9770 ca         1 CHW      -0.186300
      4 CAD          0.8310     0.5710     1.8670 c3         1 CHW       0.033100
      5 CAE         -0.4800     0.5250     1.0970 c2         1 CHW      -0.216200
      6 CAF         -1.3160     1.5350     0.7840 c2         1 CHW      -0.107400
      7 CAG         -2.6010     1.2900     0.0030 c3         1 CHW      -0.038200
      8 CAH         -3.8670     1.3320     0.8870 c3         1 CHW      -0.039200
      9 CAI         -5.1240     0.9900     0.1060 c2         1 CHW      -0.203200
     10 CAJ         -5.6670    -0.2290    -0.0900 c2         1 CHW      -0.147400
     11 CAK         -6.9620    -0.4030    -0.8850 c3         1 CHW       0.205500
     12 OAL         -6.6590    -0.9330    -2.1760 oh         1 CHW      -0.654000
     13 OAM          4.4540     3.1130    -1.0430 o          1 CHW      -0.575100
     14 CAO          3.8910     0.8370    -0.4930 ca         1 CHW      -0.364600
     15 CAP          2.3590    -1.1610     0.7800 ca         1 CHW       0.236100
     16 OAQ          1.6230    -2.1460     1.3800 oh         1 CHW      -0.517100
     17 CAR         -1.1050     3.0070     1.1220 c3         1 CHW      -0.052900
     18 CAS         -5.0570    -1.5330     0.4290 c3         1 CHW      -0.056900
     19 CAT         -8.0160    -1.3000    -0.2050 c3         1 CHW      -0.124100
     20 CAU          4.2240    -0.5330    -0.6800 ca         1 CHW       0.079700
     21 CAV          3.4450    -1.5260    -0.0360 ca         1 CHW      -0.045000
     22 ClAW         3.7930    -3.2570    -0.2280 cl         1 CHW      -0.206000
     23 CAX          5.4120    -0.9210    -1.5710 c3         1 CHW      -0.067800
     24 HOAA         3.1300     3.0040    -0.0250 ho         1 CHW       0.520000
     25 HAD          0.7630    -0.1170     2.7180 hc         1 CHW       0.060700
     26 HADA         0.9930     1.5420     2.3430 hc         1 CHW       0.060700
     27 HAE         -0.7400    -0.4900     0.7920 ha         1 CHW       0.168000
     28 HAG         -2.7010     2.0170    -0.8120 hc         1 CHW       0.047200
     29 HAGA        -2.5600     0.3070    -0.4810 hc         1 CHW       0.047200
     30 HAH         -3.7360     0.6480     1.7340 hc         1 CHW       0.046200
     31 HAK         -7.4250     0.5880    -1.0040 h1         1 CHW       0.070700
     32 HOAL        -6.0690    -1.7000    -2.0260 ho         1 CHW       0.437000
     33 HAN          5.5510     1.6030    -1.8190 h4         1 CHW       0.007200
     34 HOAQ         2.0200    -3.0030     1.1140 ho         1 CHW       0.486000
     35 HAR         -1.1550     3.6260     0.2180 hc         1 CHW       0.040367
     36 HARA        -1.8750     3.3700     1.8130 hc         1 CHW       0.040367
     37 HARB        -0.1370     3.2110     1.5860 hc         1 CHW       0.040367
     38 HAS         -4.0510    -1.3960     0.8380 hc         1 CHW       0.040367
     39 HASA        -5.6700    -1.9690     1.2270 hc         1 CHW       0.040367
     40 HASB        -4.9680    -2.2790    -0.3690 hc         1 CHW       0.040367
     41 HAT         -8.2290    -0.9370     0.8080 hc         1 CHW       0.042033
     42 HATA        -8.9540    -1.2840    -0.7740 hc         1 CHW       0.042033
     43 HATB        -7.6800    -2.3410    -0.1370 hc         1 CHW       0.042033
     44 HAX          6.3420    -0.4790    -1.1960 hc         1 CHW       0.057700
     45 HAXA         5.5910    -1.9980    -1.6360 hc         1 CHW       0.057700
     46 HAXB         5.2600    -0.5710    -2.5990 hc         1 CHW       0.057700
     47 HAI         -5.6170     1.8700    -0.3110 ha         1 CHW       0.166000
     48 HAH1        -3.9740     2.3300     1.3270 hc         1 CHW       0.046200
     49 CAN          4.7020     1.9180    -1.1760 c          1 CHW       0.603500
@<TRIPOS>BOND
     1     1     2 1   
     2     1    24 1   
     3     2     3 ar  
     4     2    14 ar  
     5     3     4 1   
     6     3    15 ar  
     7     4     5 1   
     8     4    25 1   
     9     4    26 1   
    10     5     6 2   
    11     5    27 1   
    12     6     7 1   
    13     6    17 1   
    14     7     8 1   
    15     7    28 1   
    16     7    29 1   
    17     8     9 1   
    18     8    30 1   
    19     8    48 1   
    20     9    10 2   
    21     9    47 1   
    22    10    11 1   
    23    10    18 1   
    24    11    12 1   
    25    11    19 1   
    26    11    31 1   
    27    12    32 1   
    28    13    49 2   
    29    14    20 ar  
    30    14    49 1   
    31    15    16 1   
    32    15    21 ar  
    33    16    34 1   
    34    17    35 1   
    35    17    36 1   
    36    17    37 1   
    37    18    38 1   
    38    18    39 1   
    39    18    40 1   
    40    19    41 1   
    41    19    42 1   
    42    19    43 1   
    43    20    21 ar  
    44    20    23 1   
    45    21    22 1   
    46    23    44 1   
    47    23    45 1   
    48    23    46 1   
    49    33    49 1   
@<TRIPOS>SUBSTRUCTURE
     1 CHW         1 TEMP              0 ****  ****    0 ROOT
