@<TRIPOS>MOLECULE
CHW
   49    49     1     0     0
SMALL
bcc


@<TRIPOS>ATOM
      1 OAA          2.1870     2.3890     0.2940 oh         1 CHW      -0.494100
      2 CAB          2.6980     1.1690     0.2210 ca         1 CHW       0.277100
      3 CAC          2.1030     0.1720     0.9940 ca         1 CHW      -0.186300
      4 CAD          0.9080     0.4830     1.8600 c3         1 CHW       0.033100
      5 CAE         -0.3710     0.3850     1.0790 c2         1 CHW      -0.166200
      6 CAF         -1.2520     1.3560     0.8280 c2         1 CHW      -0.107400
      7 CAG         -2.5050     1.0530     0.0460 c3         1 CHW      -0.038200
      8 CAH         -3.7570     0.9720     0.9350 c3         1 CHW      -0.039200
      9 CAI         -4.9980     0.7950     0.1160 c2         1 CHW      -0.153200
     10 CAJ         -5.6510    -0.3390    -0.1460 c2         1 CHW      -0.147400
     11 CAK         -6.8870    -0.2990    -1.0220 c3         1 CHW       0.182300
     12 OAL         -6.7700    -1.1810    -2.1270 oh         1 CHW      -0.591800
     13 OAM          3.9780     3.1270    -1.3620 o          1 CHW      -0.575100
     14 CAO          3.8110     0.8930    -0.6080 ca         1 CHW      -0.364600
     15 CAP          2.6190    -1.1140     0.9010 ca         1 CHW       0.236100
     16 OAQ          2.0200    -2.0660     1.6110 oh         1 CHW      -0.478100
     17 CAR         -1.1190     2.7780     1.2840 c3         1 CHW      -0.052900
     18 CAS         -5.2380    -1.6910     0.3560 c3         1 CHW      -0.056900
     19 CAT         -8.1630    -0.5610    -0.2320 c3         1 CHW      -0.124100
     20 CAU          4.3430    -0.4150    -0.6790 ca         1 CHW       0.079700
     21 CAV          3.7330    -1.3910     0.0770 ca         1 CHW      -0.136600
     22 CLAW         4.2980    -3.0380     0.0730 cl         1 CHW      -0.114400
     23 CAX          5.5310    -0.7050    -1.5500 c3         1 CHW      -0.067800
     24 HOAA         2.7150     2.9760    -0.3000 ho         1 CHW       0.481000
     25 HAD          0.8730    -0.2180     2.6960 hc         1 CHW       0.060700
     26 HADA         1.0250     1.4710     2.3030 hc         1 CHW       0.060700
     27 HAE         -0.5850    -0.6040     0.6810 ha         1 CHW       0.118000
     28 HAG         -2.6580     1.8290    -0.7130 hc         1 CHW       0.047200
     29 HAGA        -2.3980     0.1060    -0.4900 hc         1 CHW       0.047200
     30 HAH         -3.6230     0.1600     1.6530 hc         1 CHW       0.046200
     31 HAK         -6.9590     0.7020    -1.4580 h1         1 CHW       0.070700
     32 HOAL        -6.8850    -2.0830    -1.8130 ho         1 CHW       0.398000
     33 HAN          5.2670     1.7310    -1.9930 h4         1 CHW       0.007200
     34 HOAQ         2.4530    -2.9230     1.4950 ho         1 CHW       0.447000
     35 HAR         -1.1650     3.4530     0.4260 hc         1 CHW       0.040367
     36 HARA        -1.9450     3.0590     1.9420 hc         1 CHW       0.040367
     37 HARB        -0.1930     2.9810     1.8150 hc         1 CHW       0.040367
     38 HAS         -4.4460    -1.6390     1.0990 hc         1 CHW       0.040367
     39 HASA        -6.0730    -2.2290     0.8110 hc         1 CHW       0.040367
     40 HASB        -4.8720    -2.3160    -0.4620 hc         1 CHW       0.040367
     41 HAT         -8.2770     0.1700     0.5690 hc         1 CHW       0.042033
     42 HATA        -9.0390    -0.4910    -0.8800 hc         1 CHW       0.042033
     43 HATB        -8.1660    -1.5540     0.2230 hc         1 CHW       0.042033
     44 HAX          6.4050    -0.1480    -1.2130 hc         1 CHW       0.057700
     45 HAXA         5.7960    -1.7580    -1.5460 hc         1 CHW       0.057700
     46 HAXB         5.3410    -0.4240    -2.5850 hc         1 CHW       0.057700
     47 HAI         -5.3750     1.7060    -0.3420 ha         1 CHW       0.116000
     48 HAH1        -3.8490     1.8900     1.5220 hc         1 CHW       0.046200
     49 CAN          4.3960     1.9700    -1.3720 c          1 CHW       0.603500
@<TRIPOS>BOND
     1     1     2 1   
     2     1    24 1   
     3     2     3 ar  
     4     2    14 ar  
     5     3     4 1   
     6     3    15 ar  
     7     4     5 1   
     8     4    25 1   
     9     4    26 1   
    10     5     6 2   
    11     5    27 1   
    12     6     7 1   
    13     6    17 1   
    14     7     8 1   
    15     7    28 1   
    16     7    29 1   
    17     8     9 1   
    18     8    30 1   
    19     8    48 1   
    20     9    10 2   
    21     9    47 1   
    22    10    11 1   
    23    10    18 1   
    24    11    12 1   
    25    11    19 1   
    26    11    31 1   
    27    12    32 1   
    28    13    49 2   
    29    14    20 ar  
    30    14    49 1   
    31    15    16 1   
    32    15    21 ar  
    33    16    34 1   
    34    17    35 1   
    35    17    36 1   
    36    17    37 1   
    37    18    38 1   
    38    18    39 1   
    39    18    40 1   
    40    19    41 1   
    41    19    42 1   
    42    19    43 1   
    43    20    21 ar  
    44    20    23 1   
    45    21    22 1   
    46    23    44 1   
    47    23    45 1   
    48    23    46 1   
    49    33    49 1   
@<TRIPOS>SUBSTRUCTURE
     1 CHW         1 TEMP              0 ****  ****    0 ROOT
