@<TRIPOS>MOLECULE
CHX
   18    18     1     0     0
SMALL
No Charge or Current Charge


@<TRIPOS>ATOM
      1 C1          -1.2830     0.2430     0.7580 c6         1 CHX      -0.073400
      2 C2          -1.2870    -0.2380    -0.7150 c6         1 CHX      -0.073400
      3 C3          -0.0060     0.2180    -1.4580 c6         1 CHX      -0.073400
      4 C4           1.2700    -0.2540    -0.7170 c6         1 CHX      -0.073400
      5 C5           1.2750     0.2270     0.7560 c6         1 CHX      -0.073400
      6 C6          -0.0060    -0.2290     1.4990 c6         1 CHX      -0.073400
      7 H11         -1.3440     1.3390     0.7890 hc         1 CHX       0.036867
      8 H12         -2.1750    -0.1340     1.2760 hc         1 CHX       0.036867
      9 H21         -1.3620    -1.3340    -0.7450 hc         1 CHX       0.036867
     10 H22         -2.1760     0.1500    -1.2310 hc         1 CHX       0.036867
     11 H31         -0.0090    -0.1760    -2.4830 hc         1 CHX       0.036867
     12 H32          0.0000     1.3130    -1.5450 hc         1 CHX       0.036867
     13 H41          1.3320    -1.3510    -0.7480 hc         1 CHX       0.036867
     14 H42          2.1630     0.1230    -1.2350 hc         1 CHX       0.036867
     15 H51          2.1630    -0.1610     1.2720 hc         1 CHX       0.036867
     16 H52          1.3500     1.3230     0.7870 hc         1 CHX       0.036867
     17 H61         -0.0030     0.1650     2.5240 hc         1 CHX       0.036867
     18 H62         -0.0130    -1.3250     1.5860 hc         1 CHX       0.036867
@<TRIPOS>BOND
     1     1     2 1   
     2     1     6 1   
     3     1     7 1   
     4     1     8 1   
     5     2     3 1   
     6     2     9 1   
     7     2    10 1   
     8     3     4 1   
     9     3    11 1   
    10     3    12 1   
    11     4     5 1   
    12     4    13 1   
    13     4    14 1   
    14     5     6 1   
    15     5    15 1   
    16     5    16 1   
    17     6    17 1   
    18     6    18 1   
@<TRIPOS>SUBSTRUCTURE
     1 CHX         1 TEMP              0 ****  ****    0 ROOT
