@<TRIPOS>MOLECULE
CHX
   18    18     1     0     0
SMALL
bcc


@<TRIPOS>ATOM
      1 C1          -1.2650     0.2380     0.7480 c6         1 CHX      -0.073400
      2 C2          -1.2690    -0.2330    -0.7040 c6         1 CHX      -0.073400
      3 C3          -0.0060     0.2100    -1.4360 c6         1 CHX      -0.073400
      4 C4           1.2530    -0.2490    -0.7060 c6         1 CHX      -0.073400
      5 C5           1.2570     0.2230     0.7450 c6         1 CHX      -0.073400
      6 C6          -0.0060    -0.2230     1.4780 c6         1 CHX      -0.073400
      7 H11         -1.3190     1.3320     0.7740 hc         1 CHX       0.036867
      8 H12         -2.1560    -0.1270     1.2650 hc         1 CHX       0.036867
      9 H21         -1.3390    -1.3260    -0.7300 hc         1 CHX       0.036867
     10 H22         -2.1560     0.1430    -1.2200 hc         1 CHX       0.036867
     11 H31         -0.0090    -0.1690    -2.4610 hc         1 CHX       0.036867
     12 H32          0.0010     1.3040    -1.5100 hc         1 CHX       0.036867
     13 H41          1.3070    -1.3430    -0.7310 hc         1 CHX       0.036867
     14 H42          2.1440     0.1150    -1.2240 hc         1 CHX       0.036867
     15 H51          2.1450    -0.1510     1.2610 hc         1 CHX       0.036867
     16 H52          1.3230     1.3170     0.7700 hc         1 CHX       0.036867
     17 H61         -0.0020     0.1540     2.5030 hc         1 CHX       0.036867
     18 H62         -0.0120    -1.3160     1.5490 hc         1 CHX       0.036867
@<TRIPOS>BOND
     1     1     2 1   
     2     1     6 1   
     3     1     7 1   
     4     1     8 1   
     5     2     3 1   
     6     2     9 1   
     7     2    10 1   
     8     3     4 1   
     9     3    11 1   
    10     3    12 1   
    11     4     5 1   
    12     4    13 1   
    13     4    14 1   
    14     5     6 1   
    15     5    15 1   
    16     5    16 1   
    17     6    17 1   
    18     6    18 1   
@<TRIPOS>SUBSTRUCTURE
     1 CHX         1 TEMP              0 ****  ****    0 ROOT
