@<TRIPOS>MOLECULE
CHY
   84    86     1     0     0
SMALL
No Charge or Current Charge


@<TRIPOS>ATOM
      1 N7          -4.0510     1.0410     1.6840 ns         1 CHY      -0.448900
      2 C23         -5.5350     1.0290     1.6930 c3         1 CHY      -0.043300
      3 C24         -6.0880     2.0800     2.7000 c          1 CHY       0.711000
      4 O5          -5.6870     2.0510     3.8560 o          1 CHY      -0.727500
      5 C25         -6.0950    -0.3860     1.9860 c3         1 CHY      -0.034100
      6 C26         -5.5820    -1.4530     1.0230 ca         1 CHY      -0.044300
      7 C27         -4.4840    -2.2630     1.3740 ca         1 CHY      -0.108500
      8 C31         -6.1990    -1.6310    -0.2310 ca         1 CHY      -0.108500
      9 C28         -4.0060    -3.2370     0.4800 ca         1 CHY      -0.116500
     10 C30         -5.7230    -2.6080    -1.1240 ca         1 CHY      -0.116500
     11 C29         -4.6250    -3.4100    -0.7690 ca         1 CHY      -0.133000
     12 O4          -6.8480     2.9400     2.2770 o          1 CHY      -0.727500
     13 N5           0.5670     3.8100    -2.5220 nu         1 CHY      -0.947400
     14 C21          1.3240     2.7090    -2.4120 c2         1 CHY       0.828100
     15 C20         -0.3680     4.2570    -1.4890 c6         1 CHY       0.218800
     16 N4           2.2460     2.4800    -3.2190 n2         1 CHY      -0.942100
     17 C18         -0.1370     1.9340    -0.5310 c6         1 CHY       0.209500
     18 C19         -1.1320     3.0270    -0.9910 c6         1 CHY      -0.103400
     19 N3           0.8850     1.7440    -1.5900 nu         1 CHY      -0.899400
     20 N6          -1.9410     0.8110     0.8630 ns         1 CHY      -0.526900
     21 C17         -0.8610     0.5980    -0.1370 c3         1 CHY       0.050700
     22 C16          0.1360    -0.4460     0.4190 c          1 CHY       0.594100
     23 O2           0.3370    -0.6130     1.6160 o          1 CHY      -0.628100
     24 O3          -3.7050     0.9110    -0.5760 o          1 CHY      -0.646100
     25 C22         -3.2710     0.9200     0.5630 c          1 CHY       0.653100
     26 N2           0.7980    -1.1830    -0.5380 ns         1 CHY      -0.495900
     27 C11          1.9730    -2.0330    -0.2620 c3         1 CHY       0.037700
     28 C10          3.2490    -1.1550    -0.4090 c          1 CHY       0.579100
     29 O1           3.2760    -0.1490    -1.1060 o          1 CHY      -0.589100
     30 C12          1.9570    -3.2550    -1.2210 c3         1 CHY      -0.071400
     31 C13          3.0700    -4.3210    -1.0100 c3         1 CHY      -0.062700
     32 C14          3.0290    -4.9600     0.4000 c3         1 CHY      -0.086600
     33 C15          2.9960    -5.4130    -2.1010 c3         1 CHY      -0.086600
     34 N1           4.3470    -1.5720     0.3170 ns         1 CHY      -0.496900
     35 C8           5.6520    -0.8650     0.3740 c3         1 CHY      -0.011300
     36 C9           6.8250    -1.8750     0.4180 c          1 CHY       0.569900
     37 O6           6.6840    -3.0870     0.5650 o          1 CHY      -0.510100
     38 C7           5.7250     0.1270     1.5630 c3         1 CHY      -0.034100
     39 C4           4.6630     1.2200     1.5110 ca         1 CHY      -0.093300
     40 C3           3.4940     1.1190     2.2920 ca         1 CHY      -0.100000
     41 C5           4.8430     2.3430     0.6790 ca         1 CHY      -0.100000
     42 C2           2.5210     2.1330     2.2450 ca         1 CHY      -0.108500
     43 C6           3.8690     3.3550     0.6310 ca         1 CHY      -0.108500
     44 C1           2.7090     3.2520     1.4170 ca         1 CHY      -0.107000
     45 HN7         -3.5760     1.0740     2.5760 hn         1 CHY       0.277500
     46 H23         -5.8870     1.3330     0.6990 h1         1 CHY       0.075700
     47 H251        -5.8420    -0.6640     3.0170 hc         1 CHY       0.056700
     48 H252        -7.1900    -0.3470     1.9480 hc         1 CHY       0.056700
     49 H27         -3.9950    -2.1330     2.3360 ha         1 CHY       0.110500
     50 H31         -7.0450    -1.0100    -0.5160 ha         1 CHY       0.110500
     51 H28         -3.1550    -3.8560     0.7560 ha         1 CHY       0.097000
     52 H30         -6.2020    -2.7400    -2.0910 ha         1 CHY       0.097000
     53 H29         -4.2560    -4.1640    -1.4600 ha         1 CHY       0.095000
     54 H201        -1.0670     5.0090    -1.8850 h1         1 CHY       0.039200
     55 H202         0.1800     4.7110    -0.6490 h1         1 CHY       0.039200
     56 HN41         2.3360     3.3000    -3.8220 hn         1 CHY       0.366400
     57 H18          0.3620     2.3110     0.3730 h1         1 CHY       0.041700
     58 HN3          1.6470     1.0920    -1.4140 hn         1 CHY       0.481000
     59 HN6         -1.6890     0.7880     1.8430 hn         1 CHY       0.312500
     60 H17         -1.3020     0.1690    -1.0460 h1         1 CHY       0.105700
     61 HN2          0.5720    -0.9780    -1.5050 hn         1 CHY       0.333500
     62 H11          1.9210    -2.3840     0.7770 h1         1 CHY       0.083700
     63 H121         0.9820    -3.7510    -1.1320 hc         1 CHY       0.055200
     64 H122         2.0170    -2.8830    -2.2520 hc         1 CHY       0.055200
     65 H13          4.0450    -3.8320    -1.1280 hc         1 CHY       0.067700
     66 H141         3.1990    -4.2150     1.1850 hc         1 CHY       0.030533
     67 H142         2.0590    -5.4380     0.5830 hc         1 CHY       0.030533
     68 H143         3.8100    -5.7240     0.4990 hc         1 CHY       0.030533
     69 H151         3.0810    -4.9700    -3.1010 hc         1 CHY       0.030533
     70 H152         3.8120    -6.1360    -1.9840 hc         1 CHY       0.030533
     71 H153         2.0450    -5.9570    -2.0460 hc         1 CHY       0.030533
     72 HN1          4.2420    -2.4250     0.8550 hn         1 CHY       0.331500
     73 H8           5.7890    -0.2960    -0.5550 h1         1 CHY       0.120700
     74 H9           7.8380    -1.4300     0.3030 h4         1 CHY      -0.018800
     75 H71          6.7200     0.5900     1.5780 hc         1 CHY       0.051200
     76 H72          5.6430    -0.4350     2.5020 hc         1 CHY       0.051200
     77 H3           3.3370     0.2550     2.9330 ha         1 CHY       0.113000
     78 H5           5.7380     2.4310     0.0680 ha         1 CHY       0.113000
     79 H2           1.6200     2.0480     2.8490 ha         1 CHY       0.114000
     80 H6           4.0130     4.2180    -0.0150 ha         1 CHY       0.114000
     81 H1           1.9560     4.0370     1.3800 ha         1 CHY       0.119000
     82 H191        -1.7690     2.6410    -1.7980 hc         1 CHY       0.099700
     83 H192        -1.7980     3.3200    -0.1700 hc         1 CHY       0.099700
     84 H41          0.8990     4.4950    -3.1890 hn         1 CHY       0.462000
@<TRIPOS>BOND
     1     1     2 1   
     2     1    25 1   
     3     1    45 1   
     4     2     3 1   
     5     2     5 1   
     6     2    46 1   
     7     3     4 1   
     8     3    12 1   
     9     5     6 1   
    10     5    47 1   
    11     5    48 1   
    12     6     7 ar  
    13     6     8 ar  
    14     7     9 ar  
    15     7    49 1   
    16     8    10 ar  
    17     8    50 1   
    18     9    11 ar  
    19     9    51 1   
    20    10    11 ar  
    21    10    52 1   
    22    11    53 1   
    23    13    14 1   
    24    13    15 1   
    25    13    84 1   
    26    14    16 2   
    27    14    19 1   
    28    15    18 1   
    29    15    54 1   
    30    15    55 1   
    31    16    56 1   
    32    17    18 1   
    33    17    19 1   
    34    17    21 1   
    35    17    57 1   
    36    18    82 1   
    37    18    83 1   
    38    19    58 1   
    39    20    21 1   
    40    20    25 1   
    41    20    59 1   
    42    21    22 1   
    43    21    60 1   
    44    22    23 2   
    45    22    26 1   
    46    24    25 2   
    47    26    27 1   
    48    26    61 1   
    49    27    28 1   
    50    27    30 1   
    51    27    62 1   
    52    28    29 2   
    53    28    34 1   
    54    30    31 1   
    55    30    63 1   
    56    30    64 1   
    57    31    32 1   
    58    31    33 1   
    59    31    65 1   
    60    32    66 1   
    61    32    67 1   
    62    32    68 1   
    63    33    69 1   
    64    33    70 1   
    65    33    71 1   
    66    34    35 1   
    67    34    72 1   
    68    35    36 1   
    69    35    38 1   
    70    35    73 1   
    71    36    37 2   
    72    36    74 1   
    73    38    39 1   
    74    38    75 1   
    75    38    76 1   
    76    39    40 ar  
    77    39    41 ar  
    78    40    42 ar  
    79    40    77 1   
    80    41    43 ar  
    81    41    78 1   
    82    42    44 ar  
    83    42    79 1   
    84    43    44 ar  
    85    43    80 1   
    86    44    81 1   
@<TRIPOS>SUBSTRUCTURE
     1 CHY         1 TEMP              0 ****  ****    0 ROOT
