@<TRIPOS>MOLECULE
CHY
   84    86     1     0     0
SMALL
abcg2


@<TRIPOS>ATOM
      1 N7          -3.7830     0.2780     0.8180 ns         1 CHY      -0.448900
      2 C23         -5.0860     0.8050     0.4870 c3         1 CHY      -0.043300
      3 C24         -5.0830     2.3370     0.2420 c          1 CHY       0.711000
      4 O5          -4.0440     2.9650     0.5130 o          1 CHY      -0.727500
      5 C25         -6.0810     0.4490     1.5970 c3         1 CHY      -0.034100
      6 C26         -6.2400    -1.0330     1.7820 ca         1 CHY      -0.044300
      7 C27         -5.5830    -1.7110     2.8050 ca         1 CHY      -0.108500
      8 C31         -7.0380    -1.7690     0.9070 ca         1 CHY      -0.108500
      9 C28         -5.7160    -3.0860     2.9530 ca         1 CHY      -0.116500
     10 C30         -7.1760    -3.1430     1.0500 ca         1 CHY      -0.116500
     11 C29         -6.5130    -3.8070     2.0750 ca         1 CHY      -0.133000
     12 O4          -6.1520     2.8030    -0.2010 o          1 CHY      -0.727500
     13 N5           1.3270     3.8940    -1.6180 nu         1 CHY      -0.947400
     14 C21          2.1330     2.7940    -1.5320 c2         1 CHY       0.828100
     15 C20          0.1290     4.0290    -0.8140 c6         1 CHY       0.218800
     16 N4           3.3550     2.7320    -1.9270 n2         1 CHY      -0.942100
     17 C18          0.2960     1.6080    -0.3190 c6         1 CHY       0.209500
     18 C19         -0.6190     2.7150    -0.8150 c6         1 CHY      -0.103400
     19 N3           1.5450     1.6440    -1.0560 nu         1 CHY      -0.899400
     20 N6          -1.5430     0.1270     0.3460 ns         1 CHY      -0.526900
     21 C17         -0.3820     0.2300    -0.4910 c3         1 CHY       0.050700
     22 C16          0.6010    -0.8760    -0.1320 c          1 CHY       0.594100
     23 O2           0.8710    -1.1320     1.0320 o          1 CHY      -0.628100
     24 O3          -3.0630     0.2680    -1.3380 o          1 CHY      -0.646100
     25 C22         -2.8140     0.2490    -0.1380 c          1 CHY       0.653100
     26 N2           1.1760    -1.4820    -1.1860 ns         1 CHY      -0.495900
     27 C11          2.3490    -2.3330    -1.0820 c3         1 CHY       0.037700
     28 C10          3.5550    -1.4130    -1.2820 c          1 CHY       0.579100
     29 O1           4.0050    -1.1570    -2.3850 o          1 CHY      -0.589100
     30 C12          2.2930    -3.4620    -2.0960 c3         1 CHY      -0.071400
     31 C13          3.5060    -4.3970    -2.0830 c3         1 CHY      -0.062700
     32 C14          3.8380    -4.9100    -0.6840 c3         1 CHY      -0.086600
     33 C15          3.2600    -5.5590    -3.0400 c3         1 CHY      -0.086600
     34 N1           4.0150    -0.8420    -0.1530 ns         1 CHY      -0.496900
     35 C8           5.0900     0.1140    -0.1680 c3         1 CHY      -0.011300
     36 C9           6.3860    -0.4960    -0.6460 c          1 CHY       0.569900
     37 O6           6.6000    -1.6760    -0.7360 o          1 CHY      -0.510100
     38 C7           5.3400     0.6740     1.2440 c3         1 CHY      -0.034100
     39 C4           4.1500     1.3980     1.8130 ca         1 CHY      -0.093300
     40 C3           3.3290     0.7900     2.7580 ca         1 CHY      -0.100000
     41 C5           3.8440     2.6920     1.3970 ca         1 CHY      -0.100000
     42 C2           2.2230     1.4540     3.2740 ca         1 CHY      -0.108500
     43 C6           2.7440     3.3600     1.9110 ca         1 CHY      -0.108500
     44 C1           1.9290     2.7430     2.8540 ca         1 CHY      -0.107000
     45 HN7         -3.4710     0.4900     1.7540 hn         1 CHY       0.277500
     46 H23         -5.4250     0.3170    -0.4300 h1         1 CHY       0.075700
     47 H251        -5.7630     0.9100     2.5370 hc         1 CHY       0.056700
     48 H252        -7.0410     0.8970     1.3360 hc         1 CHY       0.056700
     49 H27         -4.9630    -1.1560     3.5000 ha         1 CHY       0.110500
     50 H31         -7.5630    -1.2590     0.1070 ha         1 CHY       0.110500
     51 H28         -5.1990    -3.5930     3.7570 ha         1 CHY       0.097000
     52 H30         -7.8040    -3.6950     0.3630 ha         1 CHY       0.097000
     53 H29         -6.6220    -4.8780     2.1900 ha         1 CHY       0.095000
     54 H201        -0.4860     4.8170    -1.2480 h1         1 CHY       0.039200
     55 H202         0.3630     4.3280     0.2150 h1         1 CHY       0.039200
     56 HN41         3.6770     3.6390    -2.2440 hn         1 CHY       0.366400
     57 H18          0.4810     1.7550     0.7540 h1         1 CHY       0.041700
     58 HN3          2.2540     1.0000    -0.7380 hn         1 CHY       0.481000
     59 HN6         -1.3890     0.1790     1.3420 hn         1 CHY       0.312500
     60 H17         -0.6990     0.1280    -1.5300 h1         1 CHY       0.105700
     61 HN2          0.9250    -1.1630    -2.1100 hn         1 CHY       0.333500
     62 H11          2.3550    -2.7500    -0.0740 h1         1 CHY       0.083700
     63 H121         1.3890    -4.0430    -1.8890 hc         1 CHY       0.055200
     64 H122         2.1740    -3.0460    -3.1010 hc         1 CHY       0.055200
     65 H13          4.3720    -3.8400    -2.4520 hc         1 CHY       0.067700
     66 H141         4.1630    -4.1110    -0.0150 hc         1 CHY       0.030533
     67 H142         2.9770    -5.4020    -0.2250 hc         1 CHY       0.030533
     68 H143         4.6510    -5.6370    -0.7260 hc         1 CHY       0.030533
     69 H151         3.0480    -5.2060    -4.0510 hc         1 CHY       0.030533
     70 H152         4.1300    -6.2150    -3.0940 hc         1 CHY       0.030533
     71 H153         2.4090    -6.1620    -2.7140 hc         1 CHY       0.030533
     72 HN1          3.6300    -1.1330     0.7320 hn         1 CHY       0.331500
     73 H8           4.8440     0.9490    -0.8380 h1         1 CHY       0.120700
     74 H9           7.1620     0.2540    -0.8830 h4         1 CHY      -0.018800
     75 H71          6.1940     1.3510     1.1900 hc         1 CHY       0.051200
     76 H72          5.6330    -0.1470     1.9050 hc         1 CHY       0.051200
     77 H3           3.5610    -0.2070     3.1130 ha         1 CHY       0.113000
     78 H5           4.4630     3.1750     0.6500 ha         1 CHY       0.113000
     79 H2           1.5940     0.9630     4.0050 ha         1 CHY       0.114000
     80 H6           2.5210     4.3650     1.5770 ha         1 CHY       0.114000
     81 H1           1.0700     3.2660     3.2540 ha         1 CHY       0.119000
     82 H191        -0.9660     2.4870    -1.8270 hc         1 CHY       0.099700
     83 H192        -1.4990     2.7850    -0.1770 hc         1 CHY       0.099700
     84 H41          1.8050     4.7520    -1.8420 hn         1 CHY       0.462000
@<TRIPOS>BOND
     1     1     2 1   
     2     1    25 1   
     3     1    45 1   
     4     2     3 1   
     5     2     5 1   
     6     2    46 1   
     7     3     4 1   
     8     3    12 1   
     9     5     6 1   
    10     5    47 1   
    11     5    48 1   
    12     6     7 ar  
    13     6     8 ar  
    14     7     9 ar  
    15     7    49 1   
    16     8    10 ar  
    17     8    50 1   
    18     9    11 ar  
    19     9    51 1   
    20    10    11 ar  
    21    10    52 1   
    22    11    53 1   
    23    13    14 1   
    24    13    15 1   
    25    13    84 1   
    26    14    16 2   
    27    14    19 1   
    28    15    18 1   
    29    15    54 1   
    30    15    55 1   
    31    16    56 1   
    32    17    18 1   
    33    17    19 1   
    34    17    21 1   
    35    17    57 1   
    36    18    82 1   
    37    18    83 1   
    38    19    58 1   
    39    20    21 1   
    40    20    25 1   
    41    20    59 1   
    42    21    22 1   
    43    21    60 1   
    44    22    23 2   
    45    22    26 1   
    46    24    25 2   
    47    26    27 1   
    48    26    61 1   
    49    27    28 1   
    50    27    30 1   
    51    27    62 1   
    52    28    29 2   
    53    28    34 1   
    54    30    31 1   
    55    30    63 1   
    56    30    64 1   
    57    31    32 1   
    58    31    33 1   
    59    31    65 1   
    60    32    66 1   
    61    32    67 1   
    62    32    68 1   
    63    33    69 1   
    64    33    70 1   
    65    33    71 1   
    66    34    35 1   
    67    34    72 1   
    68    35    36 1   
    69    35    38 1   
    70    35    73 1   
    71    36    37 2   
    72    36    74 1   
    73    38    39 1   
    74    38    75 1   
    75    38    76 1   
    76    39    40 ar  
    77    39    41 ar  
    78    40    42 ar  
    79    40    77 1   
    80    41    43 ar  
    81    41    78 1   
    82    42    44 ar  
    83    42    79 1   
    84    43    44 ar  
    85    43    80 1   
    86    44    81 1   
@<TRIPOS>SUBSTRUCTURE
     1 CHY         1 TEMP              0 ****  ****    0 ROOT
