@<TRIPOS>MOLECULE
CHZ
   26    28     1     0     0
SMALL
bcc


@<TRIPOS>ATOM
      1 OAA          0.0070    -3.0300    -0.0370 o          1 CHZ      -0.508100
      2 CAM         -0.0260    -1.8170    -0.0750 c          1 CHZ       0.586300
      3 CAO          1.2290    -1.0230    -0.1130 ca         1 CHZ      -0.088600
      4 CAI          2.4270    -1.7150    -0.1060 ca         1 CHZ      -0.129500
      5 CAE          3.6250    -1.0140    -0.1390 ca         1 CHZ      -0.068000
      6 CAG          3.6260     0.3630    -0.1780 ca         1 CHZ      -0.198500
      7 CAK          2.4250     1.0800    -0.1840 ca         1 CHZ       0.205100
      8 OAC          2.4410     2.4120    -0.2180 oh         1 CHZ      -0.478600
      9 CAQ          1.2010     0.3850    -0.1530 ca         1 CHZ      -0.217100
     10 CAN         -0.0880     1.0940    -0.1630 c          1 CHZ       0.618300
     11 OAB         -0.1460     2.3220    -0.2030 o          1 CHZ      -0.550100
     12 CAR         -1.3300     0.3130    -0.1280 ca         1 CHZ      -0.217100
     13 CAP         -1.3150    -1.0910    -0.0840 ca         1 CHZ      -0.088600
     14 CAJ         -2.4920    -1.8140    -0.0500 ca         1 CHZ      -0.129500
     15 CAF         -3.7100    -1.1390    -0.0590 ca         1 CHZ      -0.068000
     16 CAH         -3.7550     0.2370    -0.1030 ca         1 CHZ      -0.198500
     17 CAL         -2.5700     0.9830    -0.1380 ca         1 CHZ       0.205100
     18 OAD         -2.6740     2.3050    -0.1790 oh         1 CHZ      -0.478600
     19 HAI          2.4320    -2.7950    -0.0760 ha         1 CHZ       0.159000
     20 HAE          4.5660    -1.5480    -0.1340 ha         1 CHZ       0.140500
     21 HAG          4.5660     0.9030    -0.2040 ha         1 CHZ       0.145500
     22 HOAC         3.3520     2.7300    -0.2320 ho         1 CHZ       0.456000
     23 HAJ         -2.4700    -2.8940    -0.0160 ha         1 CHZ       0.159000
     24 HAF         -4.6340    -1.7010    -0.0320 ha         1 CHZ       0.140500
     25 HAH         -4.7020     0.7600    -0.1120 ha         1 CHZ       0.145500
     26 HOAD        -1.7560     2.6660    -0.1990 ho         1 CHZ       0.456000
@<TRIPOS>BOND
     1     1     2 2   
     2     2     3 1   
     3     2    13 1   
     4     3     4 ar  
     5     3     9 ar  
     6     4     5 ar  
     7     4    19 1   
     8     5     6 ar  
     9     5    20 1   
    10     6     7 ar  
    11     6    21 1   
    12     7     8 1   
    13     7     9 ar  
    14     8    22 1   
    15     9    10 1   
    16    10    11 2   
    17    10    12 1   
    18    12    13 ar  
    19    12    17 ar  
    20    13    14 ar  
    21    14    15 ar  
    22    14    23 1   
    23    15    16 ar  
    24    15    24 1   
    25    16    17 ar  
    26    16    25 1   
    27    17    18 1   
    28    18    26 1   
@<TRIPOS>SUBSTRUCTURE
     1 CHZ         1 TEMP              0 ****  ****    0 ROOT
