@<TRIPOS>MOLECULE
CHZ
   26    28     1     0     0
SMALL
No Charge or Current Charge


@<TRIPOS>ATOM
      1 OAA         -0.0020    -3.0590    -0.0410 o          1 CHZ      -0.508100
      2 CAM         -0.0290    -1.8320    -0.0770 c          1 CHZ       0.586300
      3 CAO          1.2490    -1.0250    -0.1130 ca         1 CHZ      -0.088600
      4 CAI          2.4840    -1.7150    -0.1040 ca         1 CHZ      -0.111500
      5 CAE          3.6970    -1.0210    -0.1350 ca         1 CHZ      -0.050000
      6 CAG          3.6930     0.3760    -0.1770 ca         1 CHZ      -0.180500
      7 CAK          2.4820     1.0870    -0.1870 ca         1 CHZ       0.205100
      8 OAC          2.5610     2.4470    -0.2280 oh         1 CHZ      -0.517600
      9 CAQ          1.2360     0.3990    -0.1550 ca         1 CHZ      -0.217100
     10 CAN         -0.0960     1.1380    -0.1650 c          1 CHZ       0.618300
     11 OAB         -0.1620     2.3620    -0.2020 o          1 CHZ      -0.550100
     12 CAR         -1.3820     0.3340    -0.1280 ca         1 CHZ      -0.217100
     13 CAP         -1.3410    -1.0860    -0.0860 ca         1 CHZ      -0.088600
     14 CAJ         -2.5500    -1.8190    -0.0520 ca         1 CHZ      -0.111500
     15 CAF         -3.7890    -1.1670    -0.0590 ca         1 CHZ      -0.050000
     16 CAH         -3.8340     0.2310    -0.1000 ca         1 CHZ      -0.180500
     17 CAL         -2.6490     0.9770    -0.1350 ca         1 CHZ       0.205100
     18 OAD         -2.7620     2.3340    -0.1740 oh         1 CHZ      -0.517600
     19 HAI          2.5090    -2.8030    -0.0720 ha         1 CHZ       0.141000
     20 HAE          4.6390    -1.5670    -0.1280 ha         1 CHZ       0.122500
     21 HAG          4.6440     0.9030    -0.2010 ha         1 CHZ       0.127500
     22 HOAC         3.5070     2.7050    -0.2440 ho         1 CHZ       0.495000
     23 HAJ         -2.5350    -2.9070    -0.0200 ha         1 CHZ       0.141000
     24 HAF         -4.7110    -1.7440    -0.0320 ha         1 CHZ       0.122500
     25 HAH         -4.7940     0.7400    -0.1060 ha         1 CHZ       0.127500
     26 HOAD        -1.8370     2.6870    -0.1940 ho         1 CHZ       0.495000
@<TRIPOS>BOND
     1     1     2 2   
     2     2     3 1   
     3     2    13 1   
     4     3     4 ar  
     5     3     9 ar  
     6     4     5 ar  
     7     4    19 1   
     8     5     6 ar  
     9     5    20 1   
    10     6     7 ar  
    11     6    21 1   
    12     7     8 1   
    13     7     9 ar  
    14     8    22 1   
    15     9    10 1   
    16    10    11 2   
    17    10    12 1   
    18    12    13 ar  
    19    12    17 ar  
    20    13    14 ar  
    21    14    15 ar  
    22    14    23 1   
    23    15    16 ar  
    24    15    24 1   
    25    16    17 ar  
    26    16    25 1   
    27    17    18 1   
    28    18    26 1   
@<TRIPOS>SUBSTRUCTURE
     1 CHZ         1 TEMP              0 ****  ****    0 ROOT
