@<TRIPOS>MOLECULE
CI0
   59    62     1     0     0
SMALL
abcg2


@<TRIPOS>ATOM
      1 N1          41.3630   -20.9570    50.3660 n          1 CI0      -0.395800
      2 N3          42.6010   -15.7170    54.0230 n          1 CI0      -0.295000
      3 C4          38.8440   -20.8360    53.1490 c3         1 CI0      -0.110100
      4 C5          41.4620   -19.3390    54.1810 c6         1 CI0       0.176800
      5 C6          42.4380   -18.1750    54.2850 c6         1 CI0      -0.091900
      6 C7          40.1150   -18.1930    52.5640 c6         1 CI0       0.176800
      7 C8          41.0160   -16.9660    52.5920 c6         1 CI0      -0.091900
      8 C10         43.7140   -15.4380    53.2460 ca         1 CI0       0.008600
      9 C13         45.9460   -14.3100    52.0630 ca         1 CI0      -0.109000
     10 C15         44.2050   -14.1970    53.6700 ca         1 CI0       0.000600
     11 C17         42.2480   -19.7960    48.4000 c6         1 CI0       0.148500
     12 C20         44.9070   -19.8130    51.0690 c3         1 CI0      -0.086600
     13 C21         42.6790   -20.9720    50.9810 c6         1 CI0       0.065500
     14 C1          41.4370   -20.9910    48.9160 c6         1 CI0       0.065500
     15 C11         44.3450   -16.1280    52.2250 ca         1 CI0      -0.109000
     16 C12         45.4670   -15.5450    51.6400 ca         1 CI0      -0.111000
     17 C14         45.3170   -13.6150    53.0930 ca         1 CI0      -0.113000
     18 C16         42.3870   -14.6870    54.9190 c          1 CI0       0.592000
     19 C18         41.4820   -18.4880    48.5480 c3         1 CI0      -0.086600
     20 C19         43.5030   -19.7810    50.4930 c6         1 CI0       0.148500
     21 C2          40.1830   -20.8010    51.0030 c          1 CI0       0.612100
     22 C3          40.2250   -20.6450    52.5310 c3         1 CI0       0.122500
     23 C9          41.7250   -16.8710    53.9400 c6         1 CI0       0.128700
     24 N2          40.8860   -19.3880    52.8520 n3         1 CI0      -0.754600
     25 N4          43.3780   -13.7720    54.6840 ns         1 CI0      -0.501600
     26 N5          43.5600   -19.7080    49.0380 n7         1 CI0      -0.852400
     27 O1          39.1140   -20.7820    50.4030 o          1 CI0      -0.609100
     28 O2          41.5000   -14.6120    55.7500 o          1 CI0      -0.569000
     29 H1          38.9060   -20.7290    54.2330 hc         1 CI0       0.047367
     30 H2          38.1140   -20.1190    52.7790 hc         1 CI0       0.047367
     31 H3          38.4630   -21.8360    52.9420 hc         1 CI0       0.047367
     32 H4          40.6950   -19.2400    54.9670 h1         1 CI0       0.040450
     33 H5          41.9930   -20.2730    54.3730 h1         1 CI0       0.040450
     34 H6          42.8430   -18.1190    55.2980 hc         1 CI0       0.057700
     35 H7          43.2740   -18.3550    53.6060 hc         1 CI0       0.057700
     36 H8          39.6580   -18.2770    51.5760 h1         1 CI0       0.040450
     37 H9          39.2920   -18.0500    53.2830 h1         1 CI0       0.040450
     38 H10         41.7350   -17.0390    51.7730 hc         1 CI0       0.057700
     39 H11         40.4190   -16.0680    52.4230 hc         1 CI0       0.057700
     40 H12         46.8190   -13.8820    51.5900 ha         1 CI0       0.116000
     41 H13         42.4260   -19.9620    47.3340 h1         1 CI0       0.067700
     42 H14         44.8830   -19.7990    52.1590 hc         1 CI0       0.040533
     43 H15         45.4390   -20.7150    50.7580 hc         1 CI0       0.040533
     44 H16         45.4820   -18.9500    50.7320 hc         1 CI0       0.040533
     45 H17         43.1820   -21.9040    50.6910 h1         1 CI0       0.056950
     46 H18         42.6120   -20.9620    52.0630 h1         1 CI0       0.056950
     47 H19         40.4350   -20.9970    48.4940 h1         1 CI0       0.056950
     48 H20         41.9310   -21.9220    48.6150 h1         1 CI0       0.056950
     49 H21         43.9940   -17.0890    51.8790 ha         1 CI0       0.128000
     50 H22         45.9720   -16.0720    50.8400 ha         1 CI0       0.118000
     51 H23         45.6850   -12.6540    53.4280 ha         1 CI0       0.121000
     52 H24         40.5490   -18.5260    47.9850 hc         1 CI0       0.040533
     53 H25         41.2280   -18.2690    49.5870 hc         1 CI0       0.040533
     54 H26         42.0730   -17.6550    48.1680 hc         1 CI0       0.040533
     55 H27         42.9950   -18.8810    50.8530 h1         1 CI0       0.067700
     56 H28         40.8630   -21.4420    52.9270 h1         1 CI0       0.061700
     57 H29         40.9600   -16.7050    54.7020 h1         1 CI0       0.083700
     58 H31         43.4680   -12.9110    55.1990 hn         1 CI0       0.468000
     59 H32         44.1360   -20.4730    48.7010 hn         1 CI0       0.403000
@<TRIPOS>BOND
     1     1    13 1   
     2     1    14 1   
     3     1    21 1   
     4     2     8 1   
     5     2    18 1   
     6     2    23 1   
     7     3    22 1   
     8     3    29 1   
     9     3    30 1   
    10     3    31 1   
    11     4     5 1   
    12     4    24 1   
    13     4    32 1   
    14     4    33 1   
    15     5    23 1   
    16     5    34 1   
    17     5    35 1   
    18     6     7 1   
    19     6    24 1   
    20     6    36 1   
    21     6    37 1   
    22     7    23 1   
    23     7    38 1   
    24     7    39 1   
    25     8    10 ar  
    26     8    15 ar  
    27     9    16 ar  
    28     9    17 ar  
    29     9    40 1   
    30    10    17 ar  
    31    10    25 1   
    32    11    14 1   
    33    11    19 1   
    34    11    26 1   
    35    11    41 1   
    36    12    20 1   
    37    12    42 1   
    38    12    43 1   
    39    12    44 1   
    40    13    20 1   
    41    13    45 1   
    42    13    46 1   
    43    14    47 1   
    44    14    48 1   
    45    15    16 ar  
    46    15    49 1   
    47    16    50 1   
    48    17    51 1   
    49    18    25 1   
    50    18    28 2   
    51    19    52 1   
    52    19    53 1   
    53    19    54 1   
    54    20    26 1   
    55    20    55 1   
    56    21    22 1   
    57    21    27 2   
    58    22    24 1   
    59    22    56 1   
    60    23    57 1   
    61    25    58 1   
    62    26    59 1   
@<TRIPOS>SUBSTRUCTURE
     1 CI0         1 TEMP              0 ****  ****    0 ROOT
