@<TRIPOS>MOLECULE
CI0
   59    62     1     0     0
SMALL
No Charge or Current Charge


@<TRIPOS>ATOM
      1 N1          41.3300   -21.1790    50.2680 n          1 CI0      -0.395800
      2 N3          42.6330   -15.6200    54.2340 n          1 CI0      -0.295000
      3 C4          38.8700   -20.7920    53.2600 c3         1 CI0      -0.110100
      4 C5          41.4090   -19.2920    54.3330 c6         1 CI0       0.176800
      5 C6          42.3780   -18.1060    54.5280 c6         1 CI0      -0.091900
      6 C7          40.2680   -18.1350    52.4700 c6         1 CI0       0.176800
      7 C8          41.1970   -16.9100    52.6050 c6         1 CI0      -0.091900
      8 C10         43.7720   -15.3140    53.4130 ca         1 CI0       0.008600
      9 C13         46.1210   -14.2180    52.3610 ca         1 CI0      -0.109000
     10 C15         44.2050   -14.0530    53.7930 ca         1 CI0       0.000600
     11 C17         42.0760   -20.0450    48.1420 c6         1 CI0       0.148500
     12 C20         44.8720   -19.6630    50.7430 c3         1 CI0      -0.086600
     13 C21         42.7060   -21.0420    50.8240 c6         1 CI0       0.065500
     14 C1          41.3440   -21.2680    48.7820 c6         1 CI0       0.065500
     15 C11         44.5590   -16.1100    52.5660 ca         1 CI0      -0.109000
     16 C12         45.7280   -15.5360    52.0170 ca         1 CI0      -0.111000
     17 C14         45.3620   -13.4610    53.2800 ca         1 CI0      -0.113000
     18 C16         42.3410   -14.5270    55.0700 c          1 CI0       0.592000
     19 C18         41.2370   -18.7410    48.2390 c3         1 CI0      -0.086600
     20 C19         43.4180   -19.7910    50.2320 c6         1 CI0       0.148500
     21 C2          40.1410   -20.9280    51.0040 c          1 CI0       0.612100
     22 C3          40.2480   -20.6530    52.5550 c3         1 CI0       0.122500
     23 C9          41.7300   -16.7830    54.0540 c6         1 CI0       0.128700
     24 N2          40.9600   -19.3760    52.9170 n3         1 CI0      -0.754600
     25 N4          43.3100   -13.6140    54.7710 ns         1 CI0      -0.501600
     26 N5          43.4280   -19.8280    48.7400 n7         1 CI0      -0.852400
     27 O1          39.0540   -20.9360    50.4280 o          1 CI0      -0.609100
     28 O2          41.4260   -14.3970    55.8650 o          1 CI0      -0.569000
     29 H1          38.9700   -20.7150    54.3490 hc         1 CI0       0.047367
     30 H2          38.1690   -20.0200    52.9220 hc         1 CI0       0.047367
     31 H3          38.4280   -21.7710    53.0390 hc         1 CI0       0.047367
     32 H4          40.5480   -19.1660    55.0050 h1         1 CI0       0.040450
     33 H5          41.9220   -20.2190    54.6290 h1         1 CI0       0.040450
     34 H6          42.6560   -18.0280    55.5870 hc         1 CI0       0.057700
     35 H7          43.3040   -18.3060    53.9760 hc         1 CI0       0.057700
     36 H8          39.9540   -18.2210    51.4200 h1         1 CI0       0.040450
     37 H9          39.3610   -17.9640    53.0670 h1         1 CI0       0.040450
     38 H10         42.0220   -17.0110    51.8920 hc         1 CI0       0.057700
     39 H11         40.6510   -16.0000    52.3260 hc         1 CI0       0.057700
     40 H12         47.0300   -13.7980    51.9370 ha         1 CI0       0.116000
     41 H13         42.2040   -20.2540    47.0680 h1         1 CI0       0.067700
     42 H14         44.8970   -19.6030    51.8380 hc         1 CI0       0.040533
     43 H15         45.4820   -20.5230    50.4420 hc         1 CI0       0.040533
     44 H16         45.3500   -18.7570    50.3520 hc         1 CI0       0.040533
     45 H17         43.2810   -21.9410    50.5620 h1         1 CI0       0.056950
     46 H18         42.7080   -20.9820    51.9190 h1         1 CI0       0.056950
     47 H19         40.3260   -21.3420    48.3760 h1         1 CI0       0.056950
     48 H20         41.8680   -22.1900    48.4920 h1         1 CI0       0.056950
     49 H21         44.2820   -17.1300    52.3220 ha         1 CI0       0.128000
     50 H22         46.3420   -16.1190    51.3330 ha         1 CI0       0.118000
     51 H23         45.6760   -12.4670    53.5900 ha         1 CI0       0.121000
     52 H24         40.2780   -18.8570    47.7190 hc         1 CI0       0.040533
     53 H25         41.0160   -18.4680    49.2760 hc         1 CI0       0.040533
     54 H26         41.7620   -17.8990    47.7750 hc         1 CI0       0.040533
     55 H27         42.8700   -18.8980    50.5690 h1         1 CI0       0.067700
     56 H28         40.8510   -21.4910    52.9300 h1         1 CI0       0.061700
     57 H29         40.8510   -16.6190    54.6960 h1         1 CI0       0.083700
     58 H31         43.3580   -12.7090    55.2260 hn         1 CI0       0.468000
     59 H32         44.0290   -20.6090    48.4540 hn         1 CI0       0.403000
@<TRIPOS>BOND
     1     1    13 1   
     2     1    14 1   
     3     1    21 1   
     4     2     8 1   
     5     2    18 1   
     6     2    23 1   
     7     3    22 1   
     8     3    29 1   
     9     3    30 1   
    10     3    31 1   
    11     4     5 1   
    12     4    24 1   
    13     4    32 1   
    14     4    33 1   
    15     5    23 1   
    16     5    34 1   
    17     5    35 1   
    18     6     7 1   
    19     6    24 1   
    20     6    36 1   
    21     6    37 1   
    22     7    23 1   
    23     7    38 1   
    24     7    39 1   
    25     8    10 ar  
    26     8    15 ar  
    27     9    16 ar  
    28     9    17 ar  
    29     9    40 1   
    30    10    17 ar  
    31    10    25 1   
    32    11    14 1   
    33    11    19 1   
    34    11    26 1   
    35    11    41 1   
    36    12    20 1   
    37    12    42 1   
    38    12    43 1   
    39    12    44 1   
    40    13    20 1   
    41    13    45 1   
    42    13    46 1   
    43    14    47 1   
    44    14    48 1   
    45    15    16 ar  
    46    15    49 1   
    47    16    50 1   
    48    17    51 1   
    49    18    25 1   
    50    18    28 2   
    51    19    52 1   
    52    19    53 1   
    53    19    54 1   
    54    20    26 1   
    55    20    55 1   
    56    21    22 1   
    57    21    27 2   
    58    22    24 1   
    59    22    56 1   
    60    23    57 1   
    61    25    58 1   
    62    26    59 1   
@<TRIPOS>SUBSTRUCTURE
     1 CI0         1 TEMP              0 ****  ****    0 ROOT
