@<TRIPOS>MOLECULE
CI1
   55    57     1     0     0
SMALL
No Charge or Current Charge


@<TRIPOS>ATOM
      1 O32         -2.7160    -2.4990    -0.9620 o          1 CI1      -0.520500
      2 S30         -2.1600    -1.2050    -0.5490 s6         1 CI1       1.190100
      3 O31         -1.8180    -0.2180    -1.5800 o          1 CI1      -0.520500
      4 CP          -3.2570    -0.4470     0.6720 c3         1 CI1      -0.298100
      5 CGB         -4.6250    -0.0710     0.1220 ca         1 CI1      -0.061300
      6 CD2         -5.6880    -0.9930     0.1710 ca         1 CI1      -0.088500
      7 CE2         -6.9520    -0.6440    -0.3360 ca         1 CI1      -0.111500
      8 CZ          -7.1600     0.6290    -0.8930 ca         1 CI1      -0.110000
      9 CE1         -6.1030     1.5530    -0.9420 ca         1 CI1      -0.111500
     10 CD1         -4.8390     1.2040    -0.4350 ca         1 CI1      -0.088500
     11 NJ          -0.7000    -1.5460     0.3060 n3         1 CI1      -0.698500
     12 CI          -0.8140    -2.6110     1.3270 c6         1 CI1       0.193800
     13 CK           0.5770    -3.0300     1.8360 c6         1 CI1      -0.072400
     14 CG           1.3810    -1.8030     2.3460 c6         1 CI1      -0.058400
     15 CH          -0.0130    -0.3490     0.8530 c6         1 CI1       0.209800
     16 CF           1.4550    -0.6230     1.3050 c6         1 CI1      -0.141000
     17 CB           2.3170    -0.9010     0.0180 c          1 CI1       0.597300
     18 O13          2.4410    -0.0220    -0.8240 o          1 CI1      -0.544100
     19 CM           3.1140    -2.1740    -0.1060 ce         1 CI1      -0.469200
     20 CA           3.8430    -2.6210    -1.1800 cf         1 CI1       0.094900
     21 O14          3.8880    -1.9140    -2.3290 oh         1 CI1      -0.522100
     22 CE           4.6370    -3.9370    -1.1670 c          1 CI1       0.675200
     23 OAN          5.2420    -4.2270    -2.1920 o          1 CI1      -0.688500
     24 OAO          4.6440    -4.6390    -0.1620 o          1 CI1      -0.688500
     25 CO           2.0820     0.6200     2.0520 c3         1 CI1      -0.020100
     26 CGA          1.8190     2.0030     1.4490 ca         1 CI1      -0.069300
     27 CDB          0.6260     2.6950     1.7490 ca         1 CI1      -0.089500
     28 CEB          0.3910     3.9730     1.2100 ca         1 CI1      -0.102500
     29 CDA          2.7860     2.6240     0.6330 ca         1 CI1      -0.089500
     30 CEA          2.5510     3.9020     0.0950 ca         1 CI1      -0.102500
     31 CZB          1.3510     4.5720     0.3810 ca         1 CI1       0.120000
     32 Cl           1.0570     6.1710    -0.2910 cl         1 CI1      -0.229000
     33 HP1C        -3.3580    -1.1700     1.4880 h1         1 CI1       0.089200
     34 HP2C        -2.7410     0.4430     1.0450 h1         1 CI1       0.089200
     35 HD2         -5.5340    -1.9810     0.6000 ha         1 CI1       0.120000
     36 HD1         -4.0250     1.9250    -0.4770 ha         1 CI1       0.120000
     37 HE2         -7.7690    -1.3610    -0.2970 ha         1 CI1       0.109500
     38 HZ          -8.1380     0.8990    -1.2850 ha         1 CI1       0.106000
     39 HE1         -6.2620     2.5390    -1.3730 ha         1 CI1       0.109500
     40 HI1C        -1.4210    -2.2670     2.1770 h1         1 CI1       0.040700
     41 HI2C        -1.3080    -3.5030     0.9140 h1         1 CI1       0.040700
     42 HH1C         0.0040     0.4540     0.1020 h1         1 CI1       0.053200
     43 HH2C        -0.5790     0.0390     1.7120 h1         1 CI1       0.053200
     44 HK1C         0.4640    -3.7620     2.6470 hc         1 CI1       0.060200
     45 HK2C         1.1000    -3.5540     1.0280 hc         1 CI1       0.060200
     46 HG1C         0.8780    -1.4480     3.2570 hc         1 CI1       0.042700
     47 HG2C         2.3830    -2.1030     2.6800 hc         1 CI1       0.042700
     48 HO1C         1.7130     0.6510     3.0840 hc         1 CI1       0.049200
     49 HO2C         3.1640     0.4660     2.1570 hc         1 CI1       0.049200
     50 HM           3.1390    -2.8110     0.7680 ha         1 CI1       0.194000
     51 H14          4.4630    -2.4430    -2.9300 ho         1 CI1       0.497000
     52 HDB         -0.1190     2.2470     2.4020 ha         1 CI1       0.122000
     53 HDA          3.7200     2.1140     0.4090 ha         1 CI1       0.122000
     54 HEB         -0.5330     4.4980     1.4390 ha         1 CI1       0.123500
     55 HEA          3.2970     4.3710    -0.5400 ha         1 CI1       0.123500
@<TRIPOS>BOND
     1     1     2 2   
     2     2     3 2   
     3     2     4 1   
     4     2    11 1   
     5     4     5 1   
     6     4    33 1   
     7     4    34 1   
     8     5     6 ar  
     9     5    10 ar  
    10     6     7 ar  
    11     6    35 1   
    12     7     8 ar  
    13     7    37 1   
    14     8     9 ar  
    15     8    38 1   
    16     9    10 ar  
    17     9    39 1   
    18    10    36 1   
    19    11    12 1   
    20    11    15 1   
    21    12    13 1   
    22    12    40 1   
    23    12    41 1   
    24    13    14 1   
    25    13    44 1   
    26    13    45 1   
    27    14    16 1   
    28    14    46 1   
    29    14    47 1   
    30    15    16 1   
    31    15    42 1   
    32    15    43 1   
    33    16    17 1   
    34    16    25 1   
    35    17    18 2   
    36    17    19 1   
    37    19    20 2   
    38    19    50 1   
    39    20    21 1   
    40    20    22 1   
    41    21    51 1   
    42    22    23 1   
    43    22    24 1   
    44    25    26 1   
    45    25    48 1   
    46    25    49 1   
    47    26    27 ar  
    48    26    29 ar  
    49    27    28 ar  
    50    27    52 1   
    51    28    31 ar  
    52    28    54 1   
    53    29    30 ar  
    54    29    53 1   
    55    30    31 ar  
    56    30    55 1   
    57    31    32 1   
@<TRIPOS>SUBSTRUCTURE
     1 CI1         1 TEMP              0 ****  ****    0 ROOT
