@<TRIPOS>MOLECULE
CI1
   55    57     1     0     0
SMALL
abcg2


@<TRIPOS>ATOM
      1 O32         -2.9000    -2.2000    -0.9500 o          1 CI1      -0.520500
      2 S30         -2.4090    -0.9940    -0.3000 s6         1 CI1       1.190100
      3 O31         -2.1160     0.1710    -1.1200 o          1 CI1      -0.520500
      4 CP          -3.6270    -0.4980     0.9360 c3         1 CI1      -0.298100
      5 CGB         -4.9220    -0.1570     0.2700 ca         1 CI1      -0.061300
      6 CD2         -5.8790    -1.1440     0.0490 ca         1 CI1      -0.088500
      7 CE2         -7.0750    -0.8310    -0.5810 ca         1 CI1      -0.111500
      8 CZ          -7.3220     0.4690    -1.0030 ca         1 CI1      -0.110000
      9 CE1         -6.3680     1.4560    -0.7890 ca         1 CI1      -0.111500
     10 CD1         -5.1710     1.1430    -0.1600 ca         1 CI1      -0.088500
     11 NJ          -1.0440    -1.3970     0.5310 n3         1 CI1      -0.698500
     12 CI          -1.1070    -2.6010     1.3640 c6         1 CI1       0.193800
     13 CK           0.3050    -3.1040     1.6090 c6         1 CI1      -0.072400
     14 CG           1.1640    -2.0080     2.2190 c6         1 CI1      -0.058400
     15 CH          -0.2630    -0.3060     1.1090 c6         1 CI1       0.209800
     16 CF           1.1830    -0.7490     1.3410 c6         1 CI1      -0.141000
     17 CB           1.8850    -0.9800    -0.0060 c          1 CI1       0.597300
     18 O13          1.3790    -0.5730    -1.0370 o          1 CI1      -0.544100
     19 CM           3.1810    -1.6350     0.0350 ce         1 CI1      -0.469200
     20 CA           3.9610    -1.8780    -1.0410 cf         1 CI1       0.094900
     21 O14          3.6630    -1.5670    -2.2850 oh         1 CI1      -0.522100
     22 CE           5.3300    -2.5740    -0.9350 c          1 CI1       0.675200
     23 OAN          5.8720    -2.7030    -2.0560 o          1 CI1      -0.688500
     24 OAO          5.7410    -2.9200     0.1740 o          1 CI1      -0.688500
     25 CO           1.9470     0.3640     2.1030 c3         1 CI1      -0.020100
     26 CGA          2.0660     1.6740     1.3750 ca         1 CI1      -0.069300
     27 CDB          1.1040     2.6690     1.5350 ca         1 CI1      -0.089500
     28 CEB          1.1920     3.8770     0.8590 ca         1 CI1      -0.102500
     29 CDA          3.1380     1.9290     0.5230 ca         1 CI1      -0.089500
     30 CEA          3.2460     3.1310    -0.1610 ca         1 CI1      -0.102500
     31 CZB          2.2650     4.0950     0.0110 ca         1 CI1       0.120000
     32 CL           2.3910     5.6020    -0.8390 cl         1 CI1      -0.229000
     33 HP1C        -3.7300    -1.3280     1.6380 h1         1 CI1       0.089200
     34 HP2C        -3.2030     0.3530     1.4710 h1         1 CI1       0.089200
     35 HD2         -5.6950    -2.1580     0.3810 ha         1 CI1       0.120000
     36 HD1         -4.4330     1.9170     0.0090 ha         1 CI1       0.120000
     37 HE2         -7.8150    -1.6040    -0.7440 ha         1 CI1       0.109500
     38 HZ          -8.2550     0.7140    -1.4930 ha         1 CI1       0.106000
     39 HE1         -6.5560     2.4710    -1.1120 ha         1 CI1       0.109500
     40 HI1C        -1.5890    -2.3810     2.3250 h1         1 CI1       0.040700
     41 HI2C        -1.6950    -3.3640     0.8600 h1         1 CI1       0.040700
     42 HH1C        -0.2900     0.5490     0.4390 h1         1 CI1       0.053200
     43 HH2C        -0.6900     0.0040     2.0740 h1         1 CI1       0.053200
     44 HK1C         0.2570    -3.9630     2.2800 hc         1 CI1       0.060200
     45 HK2C         0.7390    -3.4560     0.6690 hc         1 CI1       0.060200
     46 HG1C         0.7520    -1.7320     3.1960 hc         1 CI1       0.042700
     47 HG2C         2.1720    -2.3740     2.4130 hc         1 CI1       0.042700
     48 HO1C         1.4320     0.5230     3.0540 hc         1 CI1       0.049200
     49 HO2C         2.9420    -0.0110     2.3540 hc         1 CI1       0.049200
     50 HM           3.5820    -1.9550     0.9850 ha         1 CI1       0.194000
     51 H14          4.4530    -1.8950    -2.7790 ho         1 CI1       0.497000
     52 HDB          0.2720     2.5090     2.2100 ha         1 CI1       0.122000
     53 HDA          3.9120     1.1840     0.3930 ha         1 CI1       0.122000
     54 HEB          0.4350     4.6370     0.9980 ha         1 CI1       0.123500
     55 HEA          4.0870     3.3120    -0.8160 ha         1 CI1       0.123500
@<TRIPOS>BOND
     1     1     2 2   
     2     2     3 2   
     3     2     4 1   
     4     2    11 1   
     5     4     5 1   
     6     4    33 1   
     7     4    34 1   
     8     5     6 ar  
     9     5    10 ar  
    10     6     7 ar  
    11     6    35 1   
    12     7     8 ar  
    13     7    37 1   
    14     8     9 ar  
    15     8    38 1   
    16     9    10 ar  
    17     9    39 1   
    18    10    36 1   
    19    11    12 1   
    20    11    15 1   
    21    12    13 1   
    22    12    40 1   
    23    12    41 1   
    24    13    14 1   
    25    13    44 1   
    26    13    45 1   
    27    14    16 1   
    28    14    46 1   
    29    14    47 1   
    30    15    16 1   
    31    15    42 1   
    32    15    43 1   
    33    16    17 1   
    34    16    25 1   
    35    17    18 2   
    36    17    19 1   
    37    19    20 2   
    38    19    50 1   
    39    20    21 1   
    40    20    22 1   
    41    21    51 1   
    42    22    23 1   
    43    22    24 1   
    44    25    26 1   
    45    25    48 1   
    46    25    49 1   
    47    26    27 ar  
    48    26    29 ar  
    49    27    28 ar  
    50    27    52 1   
    51    28    31 ar  
    52    28    54 1   
    53    29    30 ar  
    54    29    53 1   
    55    30    31 ar  
    56    30    55 1   
    57    31    32 1   
@<TRIPOS>SUBSTRUCTURE
     1 CI1         1 TEMP              0 ****  ****    0 ROOT
