@<TRIPOS>MOLECULE
CI2
   55    58     1     0     0
SMALL
abcg2


@<TRIPOS>ATOM
      1 C1           4.7030     2.0710    -1.1890 c3         1 CI2      -0.201100
      2 C2           4.5850     0.7270    -0.5240 c          1 CI2       0.582100
      3 O3           5.4490     0.3130     0.2200 o          1 CI2      -0.522100
      4 C4           3.3490    -0.0710    -0.8570 c5         1 CI2      -0.168700
      5 C5           3.5230    -1.6030    -0.8260 c5         1 CI2      -0.066400
      6 C6           2.1600    -2.1790    -0.3800 c5         1 CI2      -0.070400
      7 C7           1.2320    -0.9670    -0.3640 c5         1 CI2      -0.062700
      8 C8          -0.0830    -1.0510     0.3940 c6         1 CI2      -0.044700
      9 C9          -0.9510    -2.2010    -0.1150 c6         1 CI2      -0.071400
     10 C10         -2.3160    -2.2370     0.5640 c6         1 CI2      -0.070400
     11 C11         -3.0500    -0.8990     0.4790 c6         1 CI2      -0.042700
     12 C12         -3.5660    -0.6690    -0.9530 c6         1 CI2      -0.183400
     13 C13         -4.1900     0.6830    -1.1700 c          1 CI2       0.575100
     14 O14         -5.2490     0.8270    -1.7450 o          1 CI2      -0.523100
     15 C15         -3.3930     1.8390    -0.6330 c6         1 CI2      -0.184400
     16 C16         -2.9760     1.5690     0.8120 c6         1 CI2      -0.065400
     17 C17         -2.1850     0.2680     1.0070 c6         1 CI2      -0.033000
     18 C18         -1.9820     0.1000     2.5180 c3         1 CI2      -0.085100
     19 C19         -0.8320     0.2880     0.2500 c6         1 CI2      -0.044700
     20 C20          0.0480     1.4930     0.6020 c6         1 CI2      -0.070400
     21 C21          1.3960     1.4950    -0.1240 c6         1 CI2      -0.065400
     22 C22          2.1430     0.1860     0.0920 c5         1 CI2      -0.033000
     23 C23          2.5790     0.0510     1.5550 c3         1 CI2      -0.083100
     24 H24          5.4570     2.6950    -0.7130 hc         1 CI2       0.060033
     25 H25          4.9900     1.9140    -2.2320 hc         1 CI2       0.060033
     26 H26          3.7490     2.5980    -1.2130 hc         1 CI2       0.060033
     27 H27          3.0220     0.2350    -1.8570 hc         1 CI2       0.057700
     28 H28          3.8120    -1.9670    -1.8120 hc         1 CI2       0.053200
     29 H29          4.3170    -1.8930    -0.1390 hc         1 CI2       0.053200
     30 H30          1.8060    -2.9650    -1.0490 hc         1 CI2       0.044700
     31 H31          2.2290    -2.6240     0.6160 hc         1 CI2       0.044700
     32 H32          0.9710    -0.7480    -1.4120 hc         1 CI2       0.041700
     33 H33          0.1290    -1.2390     1.4530 hc         1 CI2       0.054700
     34 H34         -1.0690    -2.1040    -1.2010 hc         1 CI2       0.039700
     35 H35         -0.4440    -3.1550     0.0480 hc         1 CI2       0.039700
     36 H36         -2.9340    -3.0230     0.1200 hc         1 CI2       0.043700
     37 H37         -2.1880    -2.5160     1.6140 hc         1 CI2       0.043700
     38 H38         -3.9350    -0.9530     1.1250 hc         1 CI2       0.050700
     39 H39         -2.7440    -0.7490    -1.6730 hc         1 CI2       0.066200
     40 H40         -4.2860    -1.4470    -1.2160 hc         1 CI2       0.066200
     41 H41         -2.5080     1.9620    -1.2660 hc         1 CI2       0.066200
     42 H42         -3.9740     2.7590    -0.7090 hc         1 CI2       0.066200
     43 H43         -2.4170     2.4250     1.1940 hc         1 CI2       0.046700
     44 H44         -3.8800     1.5120     1.4290 hc         1 CI2       0.046700
     45 H45         -2.9460     0.1190     3.0310 hc         1 CI2       0.035700
     46 H46         -1.4970    -0.8370     2.7860 hc         1 CI2       0.035700
     47 H47         -1.3810     0.9080     2.9370 hc         1 CI2       0.035700
     48 H48         -1.0500     0.3860    -0.8240 hc         1 CI2       0.041700
     49 H49         -0.4700     2.4180     0.3390 hc         1 CI2       0.041700
     50 H50          0.2160     1.5430     1.6810 hc         1 CI2       0.041700
     51 H51          1.2320     1.6380    -1.1990 hc         1 CI2       0.039200
     52 H52          1.9800     2.3530     0.2210 hc         1 CI2       0.039200
     53 H53          1.7320    -0.0700     2.2280 hc         1 CI2       0.039700
     54 H54          3.2440    -0.7970     1.7180 hc         1 CI2       0.039700
     55 H55          3.1150     0.9440     1.8820 hc         1 CI2       0.039700
@<TRIPOS>BOND
     1     1     2 1   
     2     1    24 1   
     3     1    25 1   
     4     1    26 1   
     5     2     3 2   
     6     2     4 1   
     7     4     5 1   
     8     4    22 1   
     9     4    27 1   
    10     5     6 1   
    11     5    28 1   
    12     5    29 1   
    13     6     7 1   
    14     6    30 1   
    15     6    31 1   
    16     7     8 1   
    17     7    22 1   
    18     7    32 1   
    19     8     9 1   
    20     8    19 1   
    21     8    33 1   
    22     9    10 1   
    23     9    34 1   
    24     9    35 1   
    25    10    11 1   
    26    10    36 1   
    27    10    37 1   
    28    11    12 1   
    29    11    17 1   
    30    11    38 1   
    31    12    13 1   
    32    12    39 1   
    33    12    40 1   
    34    13    14 2   
    35    13    15 1   
    36    15    16 1   
    37    15    41 1   
    38    15    42 1   
    39    16    17 1   
    40    16    43 1   
    41    16    44 1   
    42    17    18 1   
    43    17    19 1   
    44    18    45 1   
    45    18    46 1   
    46    18    47 1   
    47    19    20 1   
    48    19    48 1   
    49    20    21 1   
    50    20    49 1   
    51    20    50 1   
    52    21    22 1   
    53    21    51 1   
    54    21    52 1   
    55    22    23 1   
    56    23    53 1   
    57    23    54 1   
    58    23    55 1   
@<TRIPOS>SUBSTRUCTURE
     1 CI2         1 TEMP              0 ****  ****    0 ROOT
