@<TRIPOS>MOLECULE
CI2
   55    58     1     0     0
SMALL
No Charge or Current Charge


@<TRIPOS>ATOM
      1 C1           4.8930     2.0050    -1.4310 c3         1 CI2      -0.201100
      2 C2           4.6270     0.7890    -0.5440 c          1 CI2       0.582100
      3 O3           5.3990     0.5280     0.3720 o          1 CI2      -0.522100
      4 C4           3.3490    -0.0310    -0.8880 c5         1 CI2      -0.168700
      5 C5           3.6020    -1.5830    -0.8440 c5         1 CI2      -0.066400
      6 C6           2.2420    -2.1980    -0.3660 c5         1 CI2      -0.070400
      7 C7           1.2780    -0.9800    -0.3750 c5         1 CI2      -0.062700
      8 C8          -0.0670    -1.1070     0.3880 c6         1 CI2      -0.044700
      9 C9          -0.9600    -2.2500    -0.1610 c6         1 CI2      -0.071400
     10 C10         -2.3480    -2.2750     0.5350 c6         1 CI2      -0.070400
     11 C11         -3.1150    -0.9180     0.4370 c6         1 CI2      -0.042700
     12 C12         -3.6080    -0.6760    -1.0290 c6         1 CI2      -0.183400
     13 C13         -4.2800     0.6860    -1.2170 c          1 CI2       0.575100
     14 O14         -5.3730     0.8040    -1.7560 o          1 CI2      -0.523100
     15 C15         -3.5280     1.8850    -0.6360 c6         1 CI2      -0.184400
     16 C16         -3.0940     1.6130     0.8250 c6         1 CI2      -0.065400
     17 C17         -2.2780     0.2870     1.0260 c6         1 CI2      -0.033000
     18 C18         -2.1080     0.1030     2.5750 c3         1 CI2      -0.085100
     19 C19         -0.8400     0.3080     0.3090 c6         1 CI2      -0.044700
     20 C20          0.0670     1.5430     0.7400 c6         1 CI2      -0.070400
     21 C21          1.4350     1.5350    -0.0040 c6         1 CI2      -0.065400
     22 C22          2.1880     0.1770     0.1500 c5         1 CI2      -0.033000
     23 C23          2.6420     0.0330     1.6460 c3         1 CI2      -0.083100
     24 H24          5.7780     2.5720    -1.1210 hc         1 CI2       0.060033
     25 H25          4.9730     1.6720    -2.4710 hc         1 CI2       0.060033
     26 H26          3.9950     2.6320    -1.4570 hc         1 CI2       0.060033
     27 H27          3.0050     0.2860    -1.8800 hc         1 CI2       0.057700
     28 H28          3.8950    -1.9620    -1.8300 hc         1 CI2       0.053200
     29 H29          4.4070    -1.8610    -0.1540 hc         1 CI2       0.053200
     30 H30          1.8980    -2.9960    -1.0330 hc         1 CI2       0.044700
     31 H31          2.3280    -2.6380     0.6340 hc         1 CI2       0.044700
     32 H32          0.9770    -0.7810    -1.4130 hc         1 CI2       0.041700
     33 H33          0.1560    -1.3380     1.4370 hc         1 CI2       0.054700
     34 H34         -1.0810    -2.1490    -1.2470 hc         1 CI2       0.039700
     35 H35         -0.4630    -3.2160    -0.0020 hc         1 CI2       0.039700
     36 H36         -2.9580    -3.0750     0.0930 hc         1 CI2       0.043700
     37 H37         -2.2210    -2.5600     1.5880 hc         1 CI2       0.043700
     38 H38         -4.0220    -1.0200     1.0500 hc         1 CI2       0.050700
     39 H39         -2.7250    -0.6520    -1.6760 hc         1 CI2       0.066200
     40 H40         -4.2750    -1.4740    -1.3810 hc         1 CI2       0.066200
     41 H41         -2.6070     2.0030    -1.2200 hc         1 CI2       0.066200
     42 H42         -4.1310     2.7970    -0.7310 hc         1 CI2       0.066200
     43 H43         -2.5450     2.4790     1.2160 hc         1 CI2       0.046700
     44 H44         -4.0070     1.5630     1.4370 hc         1 CI2       0.046700
     45 H45         -3.0790    -0.0280     3.0670 hc         1 CI2       0.035700
     46 H46         -1.4980    -0.7660     2.8400 hc         1 CI2       0.035700
     47 H47         -1.6380     0.9780     3.0370 hc         1 CI2       0.035700
     48 H48         -1.0190     0.4690    -0.7610 hc         1 CI2       0.041700
     49 H49         -0.4370     2.4900     0.5090 hc         1 CI2       0.041700
     50 H50          0.2340     1.5420     1.8240 hc         1 CI2       0.041700
     51 H51          1.2550     1.7380    -1.0690 hc         1 CI2       0.039200
     52 H52          2.0610     2.3630     0.3580 hc         1 CI2       0.039200
     53 H53          1.7960    -0.0610     2.3350 hc         1 CI2       0.039700
     54 H54          3.2830    -0.8400     1.8150 hc         1 CI2       0.039700
     55 H55          3.2130     0.9110     1.9720 hc         1 CI2       0.039700
@<TRIPOS>BOND
     1     1     2 1   
     2     1    24 1   
     3     1    25 1   
     4     1    26 1   
     5     2     3 2   
     6     2     4 1   
     7     4     5 1   
     8     4    22 1   
     9     4    27 1   
    10     5     6 1   
    11     5    28 1   
    12     5    29 1   
    13     6     7 1   
    14     6    30 1   
    15     6    31 1   
    16     7     8 1   
    17     7    22 1   
    18     7    32 1   
    19     8     9 1   
    20     8    19 1   
    21     8    33 1   
    22     9    10 1   
    23     9    34 1   
    24     9    35 1   
    25    10    11 1   
    26    10    36 1   
    27    10    37 1   
    28    11    12 1   
    29    11    17 1   
    30    11    38 1   
    31    12    13 1   
    32    12    39 1   
    33    12    40 1   
    34    13    14 2   
    35    13    15 1   
    36    15    16 1   
    37    15    41 1   
    38    15    42 1   
    39    16    17 1   
    40    16    43 1   
    41    16    44 1   
    42    17    18 1   
    43    17    19 1   
    44    18    45 1   
    45    18    46 1   
    46    18    47 1   
    47    19    20 1   
    48    19    48 1   
    49    20    21 1   
    50    20    49 1   
    51    20    50 1   
    52    21    22 1   
    53    21    51 1   
    54    21    52 1   
    55    22    23 1   
    56    23    53 1   
    57    23    54 1   
    58    23    55 1   
@<TRIPOS>SUBSTRUCTURE
     1 CI2         1 TEMP              0 ****  ****    0 ROOT
