@<TRIPOS>MOLECULE
CI3
   52    54     1     0     0
SMALL
No Charge or Current Charge


@<TRIPOS>ATOM
      1 Cl          -0.2490    -5.8370    -1.3880 cl         1 CI3      -0.238000
      2 CZB         -0.2850    -4.3160    -0.5060 ca         1 CI3       0.114000
      3 CEA          0.8350    -3.4710    -0.5180 ca         1 CI3      -0.110500
      4 CDA          0.8050    -2.2570     0.1890 ca         1 CI3      -0.093500
      5 CEB         -1.4290    -3.9540     0.2210 ca         1 CI3      -0.110500
      6 CDB         -1.4580    -2.7390     0.9280 ca         1 CI3      -0.093500
      7 CGA         -0.3490    -1.8660     0.9000 ca         1 CI3      -0.061300
      8 CO          -0.3630    -0.5520     1.6930 c3         1 CI3      -0.014100
      9 CF          -0.6560     0.7820     0.8840 c6         1 CI3      -0.133000
     10 CH           0.3130     0.9380    -0.3380 c6         1 CI3       0.172800
     11 CB          -2.1430     0.8070     0.3770 c          1 CI3       0.593300
     12 O13         -2.9310    -0.0800     0.6730 o          1 CI3      -0.573100
     13 CM          -2.5750     1.9740    -0.4720 ce         1 CI3      -0.463200
     14 CA          -3.7980     2.2050    -1.0510 cf         1 CI3       0.093900
     15 O14         -4.8110     1.3230    -0.9050 oh         1 CI3      -0.527100
     16 CE          -4.1040     3.4530    -1.8930 c          1 CI3       0.675200
     17 CG          -0.4250     2.0390     1.7980 c6         1 CI3      -0.064400
     18 OAO         -3.2360     4.2980    -2.0720 o          1 CI3      -0.689000
     19 OAN         -5.2350     3.5430    -2.3570 o          1 CI3      -0.689000
     20 CK           1.0630     2.2600     2.1660 c6         1 CI3      -0.075400
     21 CI           1.9520     2.2820     0.9040 c6         1 CI3       0.164800
     22 NJ           1.7430     1.0720     0.0640 n3         1 CI3      -0.724600
     23 CP           2.6520     1.0240    -1.1070 c3         1 CI3       0.211100
     24 CGB          4.1340     0.9980    -0.7370 ca         1 CI3      -0.075300
     25 CD1          4.6920    -0.1380    -0.1160 ca         1 CI3      -0.101000
     26 CE1          6.0560    -0.1640     0.2240 ca         1 CI3      -0.118000
     27 CZ           6.8720     0.9460    -0.0540 ca         1 CI3      -0.119000
     28 CE2          6.3220     2.0820    -0.6720 ca         1 CI3      -0.118000
     29 CD2          4.9580     2.1080    -1.0120 ca         1 CI3      -0.101000
     30 HEB         -2.2910    -4.6160     0.2420 ha         1 CI3       0.121000
     31 HEA          1.7260    -3.7580    -1.0700 ha         1 CI3       0.121000
     32 HDB         -2.3450    -2.4780     1.5000 ha         1 CI3       0.130500
     33 HDA          1.6840    -1.6180     0.1870 ha         1 CI3       0.130500
     34 HO1C        -1.0760    -0.6360     2.5230 hc         1 CI3       0.055200
     35 HO2C         0.6110    -0.4770     2.1870 hc         1 CI3       0.055200
     36 HG1C        -0.7850     2.9520     1.3080 hc         1 CI3       0.053200
     37 HG2C        -1.0200     1.9460     2.7180 hc         1 CI3       0.053200
     38 HH1C         0.1820     0.0720    -1.0020 h1         1 CI3       0.047200
     39 HH2C         0.0380     1.8160    -0.9370 h1         1 CI3       0.047200
     40 HM          -1.8210     2.7340    -0.6400 ha         1 CI3       0.197000
     41 H14         -5.5630     1.7150    -1.4080 ho         1 CI3       0.497000
     42 HK1C         1.1730     3.2100     2.7060 hc         1 CI3       0.038200
     43 HK2C         1.4150     1.4820     2.8550 hc         1 CI3       0.038200
     44 HI1C         1.7240     3.1880     0.3220 h1         1 CI3       0.025700
     45 HI2C         3.0010     2.3590     1.2230 h1         1 CI3       0.025700
     46 HP1C         2.4420     0.1230    -1.6990 h1         1 CI3       0.038700
     47 HP2C         2.4610     1.8830    -1.7640 h1         1 CI3       0.038700
     48 HD1          4.0650    -0.9980     0.1050 ha         1 CI3       0.119500
     49 HD2          4.5410     2.9930    -1.4890 ha         1 CI3       0.119500
     50 HE1          6.4790    -1.0440     0.7040 ha         1 CI3       0.106000
     51 HZ           7.9270     0.9260     0.2100 ha         1 CI3       0.104000
     52 HE2          6.9530     2.9420    -0.8860 ha         1 CI3       0.106000
@<TRIPOS>BOND
     1     1     2 1   
     2     2     3 ar  
     3     2     5 ar  
     4     3     4 ar  
     5     3    31 1   
     6     4     7 ar  
     7     4    33 1   
     8     5     6 ar  
     9     5    30 1   
    10     6     7 ar  
    11     6    32 1   
    12     7     8 1   
    13     8     9 1   
    14     8    34 1   
    15     8    35 1   
    16     9    10 1   
    17     9    11 1   
    18     9    17 1   
    19    10    22 1   
    20    10    38 1   
    21    10    39 1   
    22    11    12 2   
    23    11    13 1   
    24    13    14 2   
    25    13    40 1   
    26    14    15 1   
    27    14    16 1   
    28    15    41 1   
    29    16    18 1   
    30    16    19 1   
    31    17    20 1   
    32    17    36 1   
    33    17    37 1   
    34    20    21 1   
    35    20    42 1   
    36    20    43 1   
    37    21    22 1   
    38    21    44 1   
    39    21    45 1   
    40    22    23 1   
    41    23    24 1   
    42    23    46 1   
    43    23    47 1   
    44    24    25 ar  
    45    24    29 ar  
    46    25    26 ar  
    47    25    48 1   
    48    26    27 ar  
    49    26    50 1   
    50    27    28 ar  
    51    27    51 1   
    52    28    29 ar  
    53    28    52 1   
    54    29    49 1   
@<TRIPOS>SUBSTRUCTURE
     1 CI3         1 TEMP              0 ****  ****    0 ROOT
