@<TRIPOS>MOLECULE
CI3
   52    54     1     0     0
SMALL
abcg2


@<TRIPOS>ATOM
      1 CL          -0.8980    -5.4920    -0.5470 cl         1 CI3      -0.238000
      2 CZB         -0.7280    -3.8370    -0.0510 ca         1 CI3       0.114000
      3 CEA          0.5330    -3.2670     0.0060 ca         1 CI3      -0.110500
      4 CDA          0.6550    -1.9460     0.4080 ca         1 CI3      -0.093500
      5 CEB         -1.8550    -3.1090     0.2920 ca         1 CI3      -0.110500
      6 CDB         -1.7100    -1.7880     0.6930 ca         1 CI3      -0.093500
      7 CGA         -0.4580    -1.1800     0.7520 ca         1 CI3      -0.061300
      8 CO          -0.3020     0.2520     1.1800 c3         1 CI3      -0.014100
      9 CF          -0.3660     1.2850     0.0270 c6         1 CI3      -0.133000
     10 CH           0.7580     1.0490    -0.9840 c6         1 CI3       0.172800
     11 CB          -1.7210     1.1620    -0.6780 c          1 CI3       0.593300
     12 O13         -1.7830     0.8040    -1.8440 o          1 CI3      -0.573100
     13 CM          -2.8970     1.4850     0.1130 ce         1 CI3      -0.463200
     14 CA          -4.1730     1.4140    -0.3210 cf         1 CI3       0.093900
     15 O14         -4.5460     1.0420    -1.5290 oh         1 CI3      -0.527100
     16 CE          -5.3760     1.7700     0.5690 c          1 CI3       0.675200
     17 CG          -0.2040     2.7080     0.5970 c6         1 CI3      -0.064400
     18 OAO         -5.1750     2.1430     1.7260 o          1 CI3      -0.689000
     19 OAN         -6.4620     1.6240    -0.0380 o          1 CI3      -0.689000
     20 CK           1.2100     2.9590     1.1080 c6         1 CI3      -0.075400
     21 CI           2.2530     2.5750     0.0750 c6         1 CI3       0.164800
     22 NJ           2.0620     1.2050    -0.3670 n3         1 CI3      -0.724600
     23 CP           3.1190     0.7720    -1.2550 c3         1 CI3       0.211100
     24 CGB          4.4490     0.6200    -0.5600 ca         1 CI3      -0.075300
     25 CD1          4.5290     0.0680     0.7180 ca         1 CI3      -0.101000
     26 CE1          5.7590    -0.1160     1.3330 ca         1 CI3      -0.118000
     27 CZ           6.9310     0.2480     0.6800 ca         1 CI3      -0.119000
     28 CE2          6.8610     0.8000    -0.5910 ca         1 CI3      -0.118000
     29 CD2          5.6260     0.9880    -1.2020 ca         1 CI3      -0.101000
     30 HEB         -2.8370    -3.5620     0.2550 ha         1 CI3       0.121000
     31 HEA          1.4120    -3.8430    -0.2520 ha         1 CI3       0.121000
     32 HDB         -2.5950    -1.2290     0.9680 ha         1 CI3       0.130500
     33 HDA          1.6430    -1.5040     0.4650 ha         1 CI3       0.130500
     34 HO1C        -1.0700     0.4950     1.9180 hc         1 CI3       0.055200
     35 HO2C         0.6580     0.3660     1.6830 hc         1 CI3       0.055200
     36 HG1C        -0.4260     3.4290    -0.1970 hc         1 CI3       0.053200
     37 HG2C        -0.9270     2.8920     1.3950 hc         1 CI3       0.053200
     38 HH1C         0.6860     0.0410    -1.3960 h1         1 CI3       0.047200
     39 HH2C         0.6380     1.7460    -1.8310 h1         1 CI3       0.047200
     40 HM          -2.7660     1.8050     1.1360 ha         1 CI3       0.197000
     41 H14         -5.5300     1.1130    -1.4770 ho         1 CI3       0.497000
     42 HK1C         1.3230     4.0160     1.3590 hc         1 CI3       0.038200
     43 HK2C         1.3950     2.4020     2.0300 hc         1 CI3       0.038200
     44 HI1C         2.1990     3.2700    -0.7830 h1         1 CI3       0.025700
     45 HI2C         3.2520     2.6800     0.5020 h1         1 CI3       0.025700
     46 HP1C         2.8310    -0.2000    -1.6700 h1         1 CI3       0.038700
     47 HP2C         3.2350     1.4460    -2.1220 h1         1 CI3       0.038700
     48 HD1          3.6180    -0.2050     1.2350 ha         1 CI3       0.119500
     49 HD2          5.5810     1.4290    -2.1920 ha         1 CI3       0.119500
     50 HE1          5.8040    -0.5450     2.3260 ha         1 CI3       0.106000
     51 HZ           7.8900     0.1040     1.1600 ha         1 CI3       0.104000
     52 HE2          7.7670     1.0920    -1.1070 ha         1 CI3       0.106000
@<TRIPOS>BOND
     1     1     2 1   
     2     2     3 ar  
     3     2     5 ar  
     4     3     4 ar  
     5     3    31 1   
     6     4     7 ar  
     7     4    33 1   
     8     5     6 ar  
     9     5    30 1   
    10     6     7 ar  
    11     6    32 1   
    12     7     8 1   
    13     8     9 1   
    14     8    34 1   
    15     8    35 1   
    16     9    10 1   
    17     9    11 1   
    18     9    17 1   
    19    10    22 1   
    20    10    38 1   
    21    10    39 1   
    22    11    12 2   
    23    11    13 1   
    24    13    14 2   
    25    13    40 1   
    26    14    15 1   
    27    14    16 1   
    28    15    41 1   
    29    16    18 1   
    30    16    19 1   
    31    17    20 1   
    32    17    36 1   
    33    17    37 1   
    34    20    21 1   
    35    20    42 1   
    36    20    43 1   
    37    21    22 1   
    38    21    44 1   
    39    21    45 1   
    40    22    23 1   
    41    23    24 1   
    42    23    46 1   
    43    23    47 1   
    44    24    25 ar  
    45    24    29 ar  
    46    25    26 ar  
    47    25    48 1   
    48    26    27 ar  
    49    26    50 1   
    50    27    28 ar  
    51    27    51 1   
    52    28    29 ar  
    53    28    52 1   
    54    29    49 1   
@<TRIPOS>SUBSTRUCTURE
     1 CI3         1 TEMP              0 ****  ****    0 ROOT
