@<TRIPOS>MOLECULE
CI4
   32    34     1     0     0
SMALL
abcg2


@<TRIPOS>ATOM
      1 CL           3.8160    -1.7070     1.5330 cl         1 CI4      -0.165000
      2 OAC         -5.6400    -1.1010     0.6800 oh         1 CI4      -0.534100
      3 OAD         -3.7230    -1.7670    -1.1810 oh         1 CI4      -0.550100
      4 FAE          1.7020    -1.1790    -0.3670 f          1 CI4      -0.149000
      5 CAG         -4.3170     0.7120     1.4020 ca         1 CI4      -0.098000
      6 CAH          2.0330     1.1290    -0.6380 ca         1 CI4      -0.151300
      7 CAI          2.7620     2.2570    -0.2830 ca         1 CI4      -0.077000
      8 CAJ         -3.1710     1.5050     1.3450 ca         1 CI4      -0.098000
      9 CAK          4.1490     0.9620     1.1940 ca         1 CI4      -0.071000
     10 CAM         -4.5040    -0.3820     0.5620 ca         1 CI4       0.106100
     11 CAN          2.3850    -0.0770    -0.0520 ca         1 CI4       0.200000
     12 CAO         -3.5180    -0.7090    -0.3790 ca         1 CI4       0.132100
     13 CAP          3.4290    -0.1720     0.8520 ca         1 CI4       0.063000
     14 CAQ          3.8110     2.1780     0.6220 ca         1 CI4      -0.122000
     15 CAR         -0.8810     1.8020     0.0960 c5         1 CI4       0.148300
     16 CAS         -1.2270    -0.0480    -1.3040 c          1 CI4       0.593600
     17 CAT         -2.2040     1.1770     0.4190 ca         1 CI4      -0.080300
     18 CAU         -2.3880     0.0870    -0.4180 ca         1 CI4      -0.233600
     19 NAV         -0.3830     0.9550    -0.9730 n          1 CI4      -0.409800
     20 HA0          0.8740     2.2000    -2.0660 h1         1 CI4       0.070700
     21 HA0A         1.0030     0.4860    -2.4180 h1         1 CI4       0.070700
     22 HOAC        -5.6470    -1.8390     0.0590 ho         1 CI4       0.485000
     23 HOAD        -2.9680    -1.8770    -1.7790 ho         1 CI4       0.512000
     24 HAG         -5.0950     0.9440     2.1190 ha         1 CI4       0.133000
     25 HAI          2.5000     3.2110    -0.7240 ha         1 CI4       0.119000
     26 HAJ         -3.0630     2.3480     2.0140 ha         1 CI4       0.125000
     27 HAK          4.9640     0.8890     1.9020 ha         1 CI4       0.134000
     28 HAQ          4.3690     3.0660     0.8860 ha         1 CI4       0.125000
     29 HAR         -0.9790     2.8370    -0.2430 h1         1 CI4       0.062700
     30 HARA        -0.2010     1.7990     0.9530 h1         1 CI4       0.062700
     31 CA0          0.8840     1.2070    -1.6100 c3         1 CI4       0.164300
     32 OAB         -1.0670    -0.8950    -2.1750 o          1 CI4      -0.570000
@<TRIPOS>BOND
     1     1    13 1   
     2     2    10 1   
     3     2    22 1   
     4     3    12 1   
     5     3    23 1   
     6     4    11 1   
     7     5     8 ar  
     8     5    10 ar  
     9     5    24 1   
    10     6     7 ar  
    11     6    11 ar  
    12     6    31 1   
    13     7    14 ar  
    14     7    25 1   
    15     8    17 ar  
    16     8    26 1   
    17     9    13 ar  
    18     9    14 ar  
    19     9    27 1   
    20    10    12 ar  
    21    11    13 ar  
    22    12    18 ar  
    23    14    28 1   
    24    15    17 1   
    25    15    19 1   
    26    15    29 1   
    27    15    30 1   
    28    16    18 1   
    29    16    19 1   
    30    16    32 2   
    31    17    18 ar  
    32    19    31 1   
    33    20    31 1   
    34    21    31 1   
@<TRIPOS>SUBSTRUCTURE
     1 CI4         1 TEMP              0 ****  ****    0 ROOT
