@<TRIPOS>MOLECULE
CI4
   32    34     1     0     0
SMALL
No Charge or Current Charge


@<TRIPOS>ATOM
      1 Cl           4.7130    -0.7510     2.1320 cl         1 CI4      -0.165000
      2 OAC         -6.1280    -0.3060     0.2460 oh         1 CI4      -0.534100
      3 OAD         -4.3460    -0.8040    -1.8640 oh         1 CI4      -0.550100
      4 FAE          2.4460    -1.3460     0.2570 f          1 CI4      -0.149000
      5 CAG         -4.3280     0.5900     1.5720 ca         1 CI4      -0.098000
      6 CAH          2.1480     0.8740    -0.5880 ca         1 CI4      -0.151300
      7 CAI          2.5400     2.2280    -0.5790 ca         1 CI4      -0.077000
      8 CAJ         -2.9610     0.9200     1.7130 ca         1 CI4      -0.098000
      9 CAK          4.2550     1.7390     1.0810 ca         1 CI4      -0.071000
     10 CAM         -4.8040     0.0100     0.3740 ca         1 CI4       0.106100
     11 CAN          2.8190    -0.0440     0.2480 ca         1 CI4       0.200000
     12 CAO         -3.9120    -0.2440    -0.6940 ca         1 CI4       0.132100
     13 CAP          3.8700     0.3880     1.0810 ca         1 CI4       0.063000
     14 CAQ          3.5890     2.6580     0.2510 ca         1 CI4      -0.122000
     15 CAR         -0.5890     0.9300     0.5690 c5         1 CI4       0.148300
     16 CAS         -1.4490    -0.0630    -1.4620 c          1 CI4       0.593600
     17 CAT         -2.0880     0.6610     0.6430 ca         1 CI4      -0.080300
     18 CAU         -2.5670     0.0930    -0.5250 ca         1 CI4      -0.233600
     19 NAV         -0.3110     0.4250    -0.8140 n          1 CI4      -0.409800
     20 HA0          0.9450     1.0790    -2.3610 h1         1 CI4       0.070700
     21 HA0A         1.2050    -0.5920    -1.8560 h1         1 CI4       0.070700
     22 HOAC        -6.2380    -0.6910    -0.6530 ho         1 CI4       0.485000
     23 HOAD        -3.5620    -0.8870    -2.4580 ho         1 CI4       0.512000
     24 HAG         -5.0170     0.7830     2.3900 ha         1 CI4       0.133000
     25 HAI          2.0280     2.9500    -1.2140 ha         1 CI4       0.119000
     26 HAJ         -2.5920     1.3660     2.6340 ha         1 CI4       0.125000
     27 HAK          5.0660     2.0730     1.7240 ha         1 CI4       0.134000
     28 HAQ          3.8860     3.7050     0.2530 ha         1 CI4       0.125000
     29 HAR         -0.3610     1.9990     0.6690 h1         1 CI4       0.062700
     30 HARA        -0.0370     0.3640     1.3320 h1         1 CI4       0.062700
     31 CA0          1.0010     0.4210    -1.4840 c3         1 CI4       0.164300
     32 OAB         -1.5130    -0.5300    -2.5910 o          1 CI4      -0.570000
@<TRIPOS>BOND
     1     1    13 1   
     2     2    10 1   
     3     2    22 1   
     4     3    12 1   
     5     3    23 1   
     6     4    11 1   
     7     5     8 ar  
     8     5    10 ar  
     9     5    24 1   
    10     6     7 ar  
    11     6    11 ar  
    12     6    31 1   
    13     7    14 ar  
    14     7    25 1   
    15     8    17 ar  
    16     8    26 1   
    17     9    13 ar  
    18     9    14 ar  
    19     9    27 1   
    20    10    12 ar  
    21    11    13 ar  
    22    12    18 ar  
    23    14    28 1   
    24    15    17 1   
    25    15    19 1   
    26    15    29 1   
    27    15    30 1   
    28    16    18 1   
    29    16    19 1   
    30    16    32 2   
    31    17    18 ar  
    32    19    31 1   
    33    20    31 1   
    34    21    31 1   
@<TRIPOS>SUBSTRUCTURE
     1 CI4         1 TEMP              0 ****  ****    0 ROOT
