@<TRIPOS>MOLECULE
CI5
   55    58     1     0     0
SMALL
No Charge or Current Charge


@<TRIPOS>ATOM
      1 CAA         -3.7560   -10.4920   -14.7670 ca         1 CI5      -0.056000
      2 CAB         -4.9270   -11.2800   -14.8430 ca         1 CI5      -0.163900
      3 CAC         -5.9010   -10.9320   -15.8040 ca         1 CI5      -0.056000
      4 CAD         -5.7020    -9.8450   -16.6720 ca         1 CI5      -0.143500
      5 CAE         -4.5560    -9.0300   -16.5640 ca         1 CI5       0.012000
      6 CAF         -3.5640    -9.4040   -15.6350 ca         1 CI5      -0.143500
      7 CAG         -5.1670   -12.4230   -13.9020 ce         1 CI5       0.661800
      8 CAK         -3.4440    -6.8290   -17.2050 c5         1 CI5       0.085000
      9 CAL         -3.8360    -5.8910   -18.3810 c5         1 CI5       0.063300
     10 CAN         -4.6890    -7.9800   -18.8680 c          1 CI5       0.705100
     11 CAP         -4.9540    -4.9190   -17.8730 c          1 CI5       0.580100
     12 CAR         -7.3680    -4.3970   -18.3600 c3         1 CI5       0.159000
     13 CAS         -8.1500    -5.1450   -17.2640 ca         1 CI5      -0.093300
     14 CAU         -8.2120    -4.2480   -19.6460 c3         1 CI5      -0.090400
     15 CAV         -7.5390    -3.4000   -20.7480 c3         1 CI5      -0.089100
     16 CAW         -8.9950    -4.4700   -16.3350 ca         1 CI5      -0.016000
     17 CAX         -9.6630    -5.2160   -15.3290 ca         1 CI5      -0.037000
     18 CAY         -9.5080    -6.6110   -15.2540 ca         1 CI5      -0.094000
     19 CAZ         -8.7010    -7.2780   -16.1830 ca         1 CI5      -0.102000
     20 CBA         -8.0340    -6.5540   -17.1810 ca         1 CI5      -0.093000
     21 CBB         -9.2050    -3.0690   -16.3820 ca         1 CI5      -0.105000
     22 CBC        -10.0390    -2.4340   -15.4460 ca         1 CI5      -0.105000
     23 CBD        -10.6810    -3.1830   -14.4500 ca         1 CI5      -0.109000
     24 CBE        -10.4950    -4.5710   -14.3930 ca         1 CI5      -0.096000
     25 NAH         -4.2650    -8.0030   -17.5340 n          1 CI5      -0.250400
     26 NAI         -4.0950   -13.0140   -13.3310 nv         1 CI5      -1.075200
     27 NAJ         -6.3130   -12.9270   -13.6960 n2         1 CI5      -0.825100
     28 NAQ         -6.0880    -5.0440   -18.6480 ns         1 CI5      -0.490900
     29 OAM         -4.3120    -6.7930   -19.4280 os         1 CI5      -0.418100
     30 OAT         -4.8810    -4.1580   -16.9180 o          1 CI5      -0.565100
     31 H1          -2.9830   -10.7140   -14.0340 ha         1 CI5       0.129000
     32 H2          -6.8160   -11.5150   -15.8930 ha         1 CI5       0.129000
     33 H3          -6.4720    -9.6220   -17.4050 ha         1 CI5       0.127000
     34 H4          -2.6340    -8.8450   -15.5700 ha         1 CI5       0.127000
     35 H5          -2.3750    -7.0770   -17.2310 h1         1 CI5       0.075700
     36 H6          -3.6850    -6.4150   -16.2170 h1         1 CI5       0.075700
     37 H7          -2.9990    -5.2860   -18.7530 h1         1 CI5       0.093700
     38 H8          -7.1200    -3.3900   -18.0020 h1         1 CI5       0.080700
     39 H9          -9.1720    -3.7830   -19.3870 hc         1 CI5       0.054200
     40 H10         -8.4440    -5.2420   -20.0470 hc         1 CI5       0.054200
     41 H11         -8.2110    -3.2920   -21.6080 hc         1 CI5       0.035367
     42 H12         -7.3010    -2.3970   -20.3730 hc         1 CI5       0.035367
     43 H13         -6.6120    -3.8690   -21.0980 hc         1 CI5       0.035367
     44 H14        -10.0220    -7.1810   -14.4830 ha         1 CI5       0.115000
     45 H15         -8.5920    -8.3590   -16.1310 ha         1 CI5       0.119000
     46 H16         -7.4240    -7.1020   -17.8920 ha         1 CI5       0.115000
     47 H17         -8.7420    -2.4470   -17.1410 ha         1 CI5       0.110000
     48 H18        -10.1890    -1.3580   -15.4960 ha         1 CI5       0.111000
     49 H19        -11.3260    -2.6890   -13.7270 ha         1 CI5       0.113000
     50 H20        -11.0030    -5.1470   -13.6220 ha         1 CI5       0.113000
     51 H21         -4.2160   -13.9850   -13.0690 hn         1 CI5       0.459000
     52 H22         -3.2020   -12.7930   -13.7560 hn         1 CI5       0.459000
     53 H23         -6.2460   -13.5420   -12.8780 hn         1 CI5       0.370400
     54 H24         -6.0260    -5.6750   -19.4390 hn         1 CI5       0.318500
     55 OAO         -5.2830    -8.8620   -19.4690 o          1 CI5      -0.506000
@<TRIPOS>BOND
     1     1     2 ar  
     2     1     6 ar  
     3     1    31 1   
     4     2     3 ar  
     5     2     7 1   
     6     3     4 ar  
     7     3    32 1   
     8     4     5 ar  
     9     4    33 1   
    10     5     6 ar  
    11     5    25 1   
    12     6    34 1   
    13     7    26 1   
    14     7    27 2   
    15     8     9 1   
    16     8    25 1   
    17     8    35 1   
    18     8    36 1   
    19     9    11 1   
    20     9    29 1   
    21     9    37 1   
    22    10    25 1   
    23    10    29 1   
    24    10    55 2   
    25    11    28 1   
    26    11    30 2   
    27    12    13 1   
    28    12    14 1   
    29    12    28 1   
    30    12    38 1   
    31    13    16 ar  
    32    13    20 ar  
    33    14    15 1   
    34    14    39 1   
    35    14    40 1   
    36    15    41 1   
    37    15    42 1   
    38    15    43 1   
    39    16    17 ar  
    40    16    21 ar  
    41    17    18 ar  
    42    17    24 ar  
    43    18    19 ar  
    44    18    44 1   
    45    19    20 ar  
    46    19    45 1   
    47    20    46 1   
    48    21    22 ar  
    49    21    47 1   
    50    22    23 ar  
    51    22    48 1   
    52    23    24 ar  
    53    23    49 1   
    54    24    50 1   
    55    26    51 1   
    56    26    52 1   
    57    27    53 1   
    58    28    54 1   
@<TRIPOS>SUBSTRUCTURE
     1 CI5         1 TEMP              0 ****  ****    0 ROOT
