@<TRIPOS>MOLECULE
CI5
   55    58     1     0     0
SMALL
abcg2


@<TRIPOS>ATOM
      1 CAA         -2.8640   -10.6870   -14.8700 ca         1 CI5      -0.056000
      2 CAB         -3.8720   -11.3090   -14.1390 ca         1 CI5      -0.163900
      3 CAC         -5.1940   -11.0750   -14.5120 ca         1 CI5      -0.056000
      4 CAD         -5.5080   -10.2640   -15.5870 ca         1 CI5      -0.143500
      5 CAE         -4.4890    -9.6570   -16.3230 ca         1 CI5       0.012000
      6 CAF         -3.1650    -9.8700   -15.9490 ca         1 CI5      -0.143500
      7 CAG         -3.5820   -12.1710   -12.9610 ce         1 CI5       0.661800
      8 CAK         -3.9000    -7.7190   -17.8040 c5         1 CI5       0.085000
      9 CAL         -4.8410    -6.9430   -18.7090 c5         1 CI5       0.063300
     10 CAN         -5.8050    -8.9500   -18.2680 c          1 CI5       0.705100
     11 CAP         -5.6590    -5.8860   -17.9570 c          1 CI5       0.580100
     12 CAR         -7.3350    -4.1370   -18.2300 c3         1 CI5       0.159000
     13 CAS         -8.6000    -4.8800   -17.8370 ca         1 CI5      -0.093300
     14 CAU         -7.6380    -3.0470   -19.2620 c3         1 CI5      -0.090400
     15 CAV         -6.4450    -2.1530   -19.5670 c3         1 CI5      -0.089100
     16 CAW         -9.4740    -4.3500   -16.8420 ca         1 CI5      -0.016000
     17 CAX        -10.6660    -5.0570   -16.5210 ca         1 CI5      -0.037000
     18 CAY        -10.9700    -6.2620   -17.1960 ca         1 CI5      -0.094000
     19 CAZ        -10.1230    -6.7450   -18.1510 ca         1 CI5      -0.102000
     20 CBA         -8.9400    -6.0500   -18.4670 ca         1 CI5      -0.093000
     21 CBB         -9.2120    -3.1430   -16.1460 ca         1 CI5      -0.105000
     22 CBC        -10.0730    -2.6710   -15.1930 ca         1 CI5      -0.105000
     23 CBD        -11.2500    -3.3780   -14.8780 ca         1 CI5      -0.109000
     24 CBE        -11.5360    -4.5450   -15.5300 ca         1 CI5      -0.096000
     25 NAH         -4.7720    -8.8030   -17.3930 n          1 CI5      -0.250400
     26 NAI         -2.3350   -12.7320   -12.9410 nv         1 CI5      -1.075200
     27 NAJ         -4.4720   -12.2810   -12.0510 n2         1 CI5      -0.825100
     28 NAQ         -6.3210    -5.0320   -18.7490 ns         1 CI5      -0.490900
     29 OAM         -5.7780    -7.9340   -19.1510 os         1 CI5      -0.418100
     30 OAT         -5.7370    -5.8830   -16.7420 o          1 CI5      -0.565100
     31 H1          -1.8240   -10.8160   -14.6010 ha         1 CI5       0.129000
     32 H2          -5.9930   -11.5320   -13.9450 ha         1 CI5       0.129000
     33 H3          -6.5450   -10.0950   -15.8330 ha         1 CI5       0.127000
     34 H4          -2.3550    -9.4020   -16.4930 ha         1 CI5       0.127000
     35 H5          -3.0300    -8.0860   -18.3560 h1         1 CI5       0.075700
     36 H6          -3.5560    -7.1380   -16.9500 h1         1 CI5       0.075700
     37 H7          -4.3430    -6.5260   -19.5840 h1         1 CI5       0.093700
     38 H8          -6.9120    -3.6560   -17.3450 h1         1 CI5       0.080700
     39 H9          -8.4600    -2.4420   -18.8760 hc         1 CI5       0.054200
     40 H10         -8.0100    -3.5180   -20.1770 hc         1 CI5       0.054200
     41 H11         -6.7240    -1.3690   -20.2700 hc         1 CI5       0.035367
     42 H12         -6.0760    -1.6700   -18.6610 hc         1 CI5       0.035367
     43 H13         -5.6180    -2.7090   -20.0090 hc         1 CI5       0.035367
     44 H14        -11.8800    -6.7920   -16.9410 ha         1 CI5       0.115000
     45 H15        -10.3520    -7.6670   -18.6710 ha         1 CI5       0.119000
     46 H16         -8.2880    -6.4660   -19.2230 ha         1 CI5       0.115000
     47 H17         -8.3200    -2.5700   -16.3640 ha         1 CI5       0.110000
     48 H18         -9.8480    -1.7470   -14.6760 ha         1 CI5       0.111000
     49 H19        -11.9230    -2.9960   -14.1210 ha         1 CI5       0.113000
     50 H20        -12.4390    -5.0960   -15.2950 ha         1 CI5       0.113000
     51 H21         -2.1580   -13.4290   -12.2350 hn         1 CI5       0.459000
     52 H22         -1.8880   -12.9330   -13.8200 hn         1 CI5       0.459000
     53 H23         -4.1720   -12.9170   -11.3160 hn         1 CI5       0.370400
     54 H24         -6.2340    -5.1220   -19.7510 hn         1 CI5       0.318500
     55 OAO         -6.6310    -9.8210   -18.3240 o          1 CI5      -0.506000
@<TRIPOS>BOND
     1     1     2 ar  
     2     1     6 ar  
     3     1    31 1   
     4     2     3 ar  
     5     2     7 1   
     6     3     4 ar  
     7     3    32 1   
     8     4     5 ar  
     9     4    33 1   
    10     5     6 ar  
    11     5    25 1   
    12     6    34 1   
    13     7    26 1   
    14     7    27 2   
    15     8     9 1   
    16     8    25 1   
    17     8    35 1   
    18     8    36 1   
    19     9    11 1   
    20     9    29 1   
    21     9    37 1   
    22    10    25 1   
    23    10    29 1   
    24    10    55 2   
    25    11    28 1   
    26    11    30 2   
    27    12    13 1   
    28    12    14 1   
    29    12    28 1   
    30    12    38 1   
    31    13    16 ar  
    32    13    20 ar  
    33    14    15 1   
    34    14    39 1   
    35    14    40 1   
    36    15    41 1   
    37    15    42 1   
    38    15    43 1   
    39    16    17 ar  
    40    16    21 ar  
    41    17    18 ar  
    42    17    24 ar  
    43    18    19 ar  
    44    18    44 1   
    45    19    20 ar  
    46    19    45 1   
    47    20    46 1   
    48    21    22 ar  
    49    21    47 1   
    50    22    23 ar  
    51    22    48 1   
    52    23    24 ar  
    53    23    49 1   
    54    24    50 1   
    55    26    51 1   
    56    26    52 1   
    57    27    53 1   
    58    28    54 1   
@<TRIPOS>SUBSTRUCTURE
     1 CI5         1 TEMP              0 ****  ****    0 ROOT
