@<TRIPOS>MOLECULE
CI7
   45    47     1     0     0
SMALL
No Charge or Current Charge


@<TRIPOS>ATOM
      1 C10         32.4380    53.3520     7.4770 cc         1 CI7      -0.179300
      2 N12         31.5900    54.4390     9.1440 na         1 CI7       0.235000
      3 C15         32.5070    55.4560     5.8990 ca         1 CI7      -0.121500
      4 C17         33.7530    55.7330     3.7960 ca         1 CI7      -0.108000
      5 C20         31.8970    56.7120     5.6480 ca         1 CI7      -0.081000
      6 C22         31.1470    54.5990    10.4590 ca         1 CI7       0.031800
      7 C24         31.3130    55.7220    12.6220 ca         1 CI7      -0.067500
      8 C26         29.6420    53.9820    12.2830 ca         1 CI7      -0.067500
      9 C01         32.9170    48.8200     2.7000 c3         1 CI7      -0.357100
     10 C06         33.0340    49.7970     5.9770 c          1 CI7       0.634100
     11 C08         32.5600    50.8380     6.9930 c3         1 CI7      -0.161400
     12 C09         32.9430    52.2700     6.5480 c3         1 CI7       0.013900
     13 C11         32.0490    53.1860     8.7780 cd         1 CI7      -0.166000
     14 C14         32.1910    54.7330     7.1580 cc         1 CI7       0.319500
     15 C16         33.4650    54.9970     4.9590 ca         1 CI7      -0.081000
     16 C18         33.1070    56.9510     3.5530 ca         1 CI7       0.126000
     17 C19         32.1840    57.4450     4.4830 ca         1 CI7      -0.108000
     18 C23         31.7550    55.5550    11.2980 ca         1 CI7      -0.116500
     19 C25         30.2580    54.9340    13.1120 ca         1 CI7      -0.026900
     20 C27         30.0850    53.8150    10.9580 ca         1 CI7      -0.116500
     21 N05         32.0470    49.2450     5.2250 ns         1 CI7      -0.597300
     22 N13         31.6810    55.4070     8.1780 nd         1 CI7      -0.504800
     23 O03         30.8090    47.6240     3.7420 o          1 CI7      -0.522500
     24 O04         33.1160    47.0110     4.6150 o          1 CI7      -0.522500
     25 O07         34.2090    49.4880     5.8660 o          1 CI7      -0.548100
     26 S02         32.1740    48.0130     4.1070 s6         1 CI7       1.216800
     27 Br2         29.6550    55.1610    14.9130 br         1 CI7      -0.083100
     28 Cl1         33.4720    57.8700     2.0980 cl         1 CI7      -0.201000
     29 H1          34.4890    55.3630     3.0870 ha         1 CI7       0.131500
     30 H2          31.1720    57.1240     6.3470 ha         1 CI7       0.126500
     31 H3          31.7870    56.4600    13.2650 ha         1 CI7       0.136000
     32 H4          28.8240    53.3750    12.6630 ha         1 CI7       0.136000
     33 H5          33.8960    49.1950     3.0150 h1         1 CI7       0.110367
     34 H6          33.0150    48.0710     1.9080 h1         1 CI7       0.110367
     35 H7          32.2530    49.6360     2.3980 h1         1 CI7       0.110367
     36 H8          31.4710    50.7870     7.1070 hc         1 CI7       0.066700
     37 H9          33.0460    50.6280     7.9530 hc         1 CI7       0.066700
     38 H10         34.0370    52.3280     6.4780 hc         1 CI7       0.068700
     39 H11         32.5370    52.4300     5.5410 hc         1 CI7       0.068700
     40 H12         32.0420    52.3240     9.4350 h4         1 CI7       0.156000
     41 H13         34.0350    54.0920     5.1250 ha         1 CI7       0.126500
     42 H14         31.6910    58.3970     4.3040 ha         1 CI7       0.131500
     43 H15         32.5720    56.1670    10.9210 ha         1 CI7       0.135500
     44 H16         29.6010    53.0800    10.3190 ha         1 CI7       0.135500
     45 H17         31.0930    49.5320     5.3610 hn         1 CI7       0.345500
@<TRIPOS>BOND
     1     1    12 1   
     2     1    13 2   
     3     1    14 1   
     4     2     6 1   
     5     2    13 1   
     6     2    22 1   
     7     3     5 ar  
     8     3    14 1   
     9     3    15 ar  
    10     4    15 ar  
    11     4    16 ar  
    12     4    29 1   
    13     5    17 ar  
    14     5    30 1   
    15     6    18 ar  
    16     6    20 ar  
    17     7    18 ar  
    18     7    19 ar  
    19     7    31 1   
    20     8    19 ar  
    21     8    20 ar  
    22     8    32 1   
    23     9    26 1   
    24     9    33 1   
    25     9    34 1   
    26     9    35 1   
    27    10    11 1   
    28    10    21 1   
    29    10    25 2   
    30    11    12 1   
    31    11    36 1   
    32    11    37 1   
    33    12    38 1   
    34    12    39 1   
    35    13    40 1   
    36    14    22 2   
    37    15    41 1   
    38    16    17 ar  
    39    16    28 1   
    40    17    42 1   
    41    18    43 1   
    42    19    27 1   
    43    20    44 1   
    44    21    26 1   
    45    21    45 1   
    46    23    26 2   
    47    24    26 2   
@<TRIPOS>SUBSTRUCTURE
     1 CI7         1 TEMP              0 ****  ****    0 ROOT
