@<TRIPOS>MOLECULE
CI7
   45    47     1     0     0
SMALL
bcc


@<TRIPOS>ATOM
      1 C10         32.5570    53.4280     7.2770 cc         1 CI7      -0.244600
      2 N12         31.7310    54.3130     9.1080 na         1 CI7       0.184300
      3 C15         32.8770    55.7310     6.1070 ca         1 CI7      -0.121500
      4 C17         34.2920    56.2700     4.2180 ca         1 CI7      -0.126000
      5 C20         32.1630    56.9080     5.8780 ca         1 CI7      -0.099000
      6 C22         31.1730    54.5080    10.3830 ca         1 CI7       0.031800
      7 C24         30.7260    55.9450    12.2590 ca         1 CI7      -0.085500
      8 C26         29.9530    53.6630    12.2780 ca         1 CI7      -0.085500
      9 C01         31.9650    48.0030     2.8840 c3         1 CI7      -0.246300
     10 C06         32.7740    50.0850     5.3770 c          1 CI7       0.701100
     11 C08         32.3680    51.0900     6.4240 c3         1 CI7      -0.161400
     12 C09         33.0050    52.4570     6.2310 c3         1 CI7       0.013900
     13 C11         32.0490    53.1370     8.5160 cd         1 CI7      -0.133300
     14 C14         32.5060    54.8460     7.2150 cc         1 CI7       0.384800
     15 C16         33.9480    55.4310     5.2660 ca         1 CI7      -0.099000
     16 C18         33.5590    57.4260     4.0080 ca         1 CI7       0.034400
     17 C19         32.4970    57.7570     4.8360 ca         1 CI7      -0.126000
     18 C23         31.2850    55.7460    11.0080 ca         1 CI7      -0.134500
     19 C25         30.0640    54.9020    12.8890 ca         1 CI7      -0.026900
     20 C27         30.5020    53.4700    11.0210 ca         1 CI7      -0.134500
     21 N05         32.0550    48.9120     5.4450 ns         1 CI7      -0.664300
     22 N13         32.0050    55.3520     8.3260 nd         1 CI7      -0.504800
     23 O03         31.4280    46.5560     5.0240 o          1 CI7      -0.593300
     24 O04         33.8030    47.2460     4.6120 o          1 CI7      -0.593300
     25 O07         33.6420    50.2580     4.5540 o          1 CI7      -0.548100
     26 S02         32.3850    47.5350     4.5410 s6         1 CI7       1.247600
     27 BR2         29.2960    55.1740    14.5900 br         1 CI7      -0.083100
     28 CL1         33.9770    58.4760     2.6950 cl         1 CI7      -0.109400
     29 H1          35.1270    56.0220     3.5770 ha         1 CI7       0.149500
     30 H2          31.3250    57.1620     6.5140 ha         1 CI7       0.144500
     31 H3          30.8200    56.9130    12.7320 ha         1 CI7       0.154000
     32 H4          29.4330    52.8450    12.7580 ha         1 CI7       0.154000
     33 H5          32.6070    48.8180     2.5610 h1         1 CI7       0.110367
     34 H6          32.1250    47.1300     2.2530 h1         1 CI7       0.110367
     35 H7          30.9200    48.3000     2.8540 h1         1 CI7       0.110367
     36 H8          31.2780    51.1750     6.4350 hc         1 CI7       0.066700
     37 H9          32.6450    50.6650     7.3950 hc         1 CI7       0.066700
     38 H10         34.0940    52.3610     6.2450 hc         1 CI7       0.068700
     39 H11         32.7480    52.8470     5.2430 hc         1 CI7       0.068700
     40 H12         31.9050    52.1900     9.0100 h4         1 CI7       0.174000
     41 H13         34.5460    54.5450     5.4330 ha         1 CI7       0.144500
     42 H14         31.9280    58.6610     4.6690 ha         1 CI7       0.149500
     43 H15         31.8090    56.5570    10.5220 ha         1 CI7       0.153500
     44 H16         30.3800    52.5060    10.5480 ha         1 CI7       0.153500
     45 H17         31.2860    48.8210     6.0990 hn         1 CI7       0.345500
@<TRIPOS>BOND
     1     1    12 1   
     2     1    13 2   
     3     1    14 1   
     4     2     6 1   
     5     2    13 1   
     6     2    22 1   
     7     3     5 ar  
     8     3    14 1   
     9     3    15 ar  
    10     4    15 ar  
    11     4    16 ar  
    12     4    29 1   
    13     5    17 ar  
    14     5    30 1   
    15     6    18 ar  
    16     6    20 ar  
    17     7    18 ar  
    18     7    19 ar  
    19     7    31 1   
    20     8    19 ar  
    21     8    20 ar  
    22     8    32 1   
    23     9    26 1   
    24     9    33 1   
    25     9    34 1   
    26     9    35 1   
    27    10    11 1   
    28    10    21 1   
    29    10    25 2   
    30    11    12 1   
    31    11    36 1   
    32    11    37 1   
    33    12    38 1   
    34    12    39 1   
    35    13    40 1   
    36    14    22 2   
    37    15    41 1   
    38    16    17 ar  
    39    16    28 1   
    40    17    42 1   
    41    18    43 1   
    42    19    27 1   
    43    20    44 1   
    44    21    26 1   
    45    21    45 1   
    46    23    26 2   
    47    24    26 2   
@<TRIPOS>SUBSTRUCTURE
     1 CI7         1 TEMP              0 ****  ****    0 ROOT
