@<TRIPOS>MOLECULE
CI8
   77    80     1     0     0
SMALL
No Charge or Current Charge


@<TRIPOS>ATOM
      1 C1         -16.9450   -12.7690   -28.5310 c3         1 CI8       0.147900
      2 C2         -16.4900   -10.4020   -29.2120 ca         1 CI8       0.052100
      3 C3         -15.4610    -9.4760   -29.4740 ca         1 CI8      -0.034000
      4 C4         -15.7880    -8.1670   -29.8520 ca         1 CI8      -0.231000
      5 C5         -16.0780    -5.8780   -30.5200 cc         1 CI8       0.426200
      6 C6         -15.9030    -4.4290   -30.9230 c3         1 CI8       0.078700
      7 O1         -16.0660   -11.6750   -28.8430 os         1 CI8      -0.359100
      8 S1         -14.6420    -6.8860   -30.2130 ss         1 CI8       0.104800
      9 N1         -14.7440    -4.1530   -31.7960 ns         1 CI8      -0.517900
     10 C7         -14.6140    -4.6090   -33.0870 c          1 CI8       0.649100
     11 O2         -15.4860    -5.3000   -33.5970 o          1 CI8      -0.604100
     12 C8         -13.2190    -4.2190   -33.7340 c5         1 CI8      -0.084000
     13 C9         -12.1480    -3.6010   -32.7460 c3         1 CI8      -0.218400
     14 C10        -12.4260    -2.1380   -32.3400 c          1 CI8       0.712000
     15 O3         -13.0840    -1.9520   -31.3300 o          1 CI8      -0.719500
     16 O4         -11.9940    -1.2410   -33.0450 o          1 CI8      -0.719500
     17 C11        -12.6550    -5.5660   -34.3760 c5         1 CI8      -0.026600
     18 C12        -13.2390    -5.5260   -35.7630 ca         1 CI8      -0.062300
     19 C13        -13.3110    -6.5940   -36.6720 ca         1 CI8      -0.116500
     20 C14        -13.8960    -6.3720   -37.9330 ca         1 CI8       0.114500
     21 F1         -13.9740    -7.3910   -38.8200 f          1 CI8      -0.178500
     22 C15        -14.3960    -5.0940   -38.2690 ca         1 CI8       0.114500
     23 F2         -14.9580    -4.8760   -39.4800 f          1 CI8      -0.178500
     24 C16        -14.3120    -4.0350   -37.3440 ca         1 CI8      -0.116500
     25 C17        -13.7280    -4.2780   -36.0900 ca         1 CI8      -0.062300
     26 C18        -13.5410    -3.2800   -34.9790 c5         1 CI8      -0.026600
     27 N2         -17.2910    -6.4330   -30.3570 nd         1 CI8      -0.563100
     28 C19        -17.0930    -7.7530   -29.9760 ca         1 CI8       0.145400
     29 C20        -18.1390    -8.6480   -29.7230 ca         1 CI8      -0.142000
     30 C21        -17.8570    -9.9850   -29.3370 ca         1 CI8       0.097100
     31 O5         -18.8940   -10.8700   -29.0880 os         1 CI8      -0.371100
     32 C22        -20.2820   -10.5070   -29.2050 c3         1 CI8       0.164600
     33 C23        -21.1210   -11.7520   -28.8650 c3         1 CI8      -0.098400
     34 C24        -20.8210   -12.9420   -29.8030 c3         1 CI8       0.094600
     35 N3         -21.6210   -14.2430   -29.5970 n4         1 CI8      -0.498000
     36 C25        -23.1110   -13.9670   -29.8600 c3         1 CI8       0.080900
     37 C26        -21.1070   -15.2890   -30.6210 c3         1 CI8       0.091100
     38 C27        -21.7030   -16.7210   -30.6120 c3         1 CI8       0.147600
     39 O6         -23.0180   -16.7330   -31.1930 oh         1 CI8      -0.662500
     40 C28        -21.4610   -14.7670   -28.1500 c3         1 CI8       0.091100
     41 C29        -20.0410   -15.1090   -27.6470 c3         1 CI8       0.147600
     42 O7         -20.1140   -15.6120   -26.3050 oh         1 CI8      -0.662500
     43 H1         -16.3590   -13.6590   -28.2670 h1         1 CI8       0.030367
     44 H2         -17.5870   -12.5250   -27.6760 h1         1 CI8       0.030367
     45 H3         -17.5720   -13.0260   -29.3940 h1         1 CI8       0.030367
     46 H4         -14.4200    -9.7780   -29.3820 ha         1 CI8       0.139000
     47 H5         -15.8020    -3.8300   -30.0090 h1         1 CI8       0.086700
     48 H6         -16.8140    -4.0950   -31.4350 h1         1 CI8       0.086700
     49 H7         -14.0170    -3.5250   -31.4580 hn         1 CI8       0.331500
     50 H8         -12.1190    -4.2430   -31.8570 hc         1 CI8       0.029200
     51 H9         -11.1990    -3.6110   -33.2950 hc         1 CI8       0.029200
     52 H11        -12.9470    -6.4610   -33.8140 hc         1 CI8       0.068200
     53 H12        -11.5600    -5.5750   -34.4300 hc         1 CI8       0.068200
     54 H13        -12.9240    -7.5750   -36.4090 ha         1 CI8       0.129000
     55 H14        -14.6930    -3.0500   -37.5990 ha         1 CI8       0.129000
     56 H15        -12.7040    -2.6150   -35.2190 hc         1 CI8       0.068200
     57 H16        -14.4210    -2.6470   -34.8170 hc         1 CI8       0.068200
     58 H17        -19.1560    -8.2860   -29.8310 ha         1 CI8       0.131000
     59 H18        -20.5340    -9.6970   -28.5080 h1         1 CI8       0.059700
     60 H19        -20.5150   -10.1770   -30.2260 h1         1 CI8       0.059700
     61 H20        -22.1810   -11.4840   -28.9330 hc         1 CI8       0.070700
     62 H21        -20.9260   -12.0350   -27.8250 hc         1 CI8       0.070700
     63 H22        -19.7620   -13.1890   -29.7100 hx         1 CI8       0.099700
     64 H23        -20.9900   -12.6180   -30.8330 hx         1 CI8       0.099700
     65 H24        -23.4740   -13.2170   -29.1540 hx         1 CI8       0.096700
     66 H25        -23.2360   -13.6040   -30.8820 hx         1 CI8       0.096700
     67 H26        -23.6770   -14.8910   -29.7290 hx         1 CI8       0.096700
     68 H27        -20.0320   -15.3840   -30.4580 hx         1 CI8       0.101200
     69 H28        -21.2470   -14.8720   -31.6200 hx         1 CI8       0.101200
     70 H29        -21.0350   -17.3700   -31.1940 h1         1 CI8       0.054700
     71 H30        -21.7220   -17.1100   -29.5860 h1         1 CI8       0.054700
     72 H31        -23.3210   -17.6690   -31.2110 ho         1 CI8       0.480500
     73 H32        -21.8830   -14.0150   -27.4800 hx         1 CI8       0.101200
     74 H33        -22.0770   -15.6630   -28.0570 hx         1 CI8       0.101200
     75 H34        -19.5920   -15.8580   -28.3130 h1         1 CI8       0.054700
     76 H35        -19.4190   -14.2050   -27.6860 h1         1 CI8       0.054700
     77 H36        -19.1960   -15.8290   -26.0210 ho         1 CI8       0.480500
@<TRIPOS>BOND
     1     1     7 1   
     2     1    43 1   
     3     1    44 1   
     4     1    45 1   
     5     2     3 ar  
     6     2     7 1   
     7     2    30 ar  
     8     3     4 ar  
     9     3    46 1   
    10     4     8 1   
    11     4    28 ar  
    12     5     6 1   
    13     5     8 1   
    14     5    27 2   
    15     6     9 1   
    16     6    47 1   
    17     6    48 1   
    18     9    10 1   
    19     9    49 1   
    20    10    11 2   
    21    10    12 1   
    22    12    13 1   
    23    12    17 1   
    24    12    26 1   
    25    13    14 1   
    26    13    50 1   
    27    13    51 1   
    28    14    15 1   
    29    14    16 1   
    30    17    18 1   
    31    17    52 1   
    32    17    53 1   
    33    18    19 ar  
    34    18    25 ar  
    35    19    20 ar  
    36    19    54 1   
    37    20    21 1   
    38    20    22 ar  
    39    22    23 1   
    40    22    24 ar  
    41    24    25 ar  
    42    24    55 1   
    43    25    26 1   
    44    26    56 1   
    45    26    57 1   
    46    27    28 1   
    47    28    29 ar  
    48    29    30 ar  
    49    29    58 1   
    50    30    31 1   
    51    31    32 1   
    52    32    33 1   
    53    32    59 1   
    54    32    60 1   
    55    33    34 1   
    56    33    61 1   
    57    33    62 1   
    58    34    35 1   
    59    34    63 1   
    60    34    64 1   
    61    35    36 1   
    62    35    37 1   
    63    35    40 1   
    64    36    65 1   
    65    36    66 1   
    66    36    67 1   
    67    37    38 1   
    68    37    68 1   
    69    37    69 1   
    70    38    39 1   
    71    38    70 1   
    72    38    71 1   
    73    39    72 1   
    74    40    41 1   
    75    40    73 1   
    76    40    74 1   
    77    41    42 1   
    78    41    75 1   
    79    41    76 1   
    80    42    77 1   
@<TRIPOS>SUBSTRUCTURE
     1 CI8         1 TEMP              0 ****  ****    0 ROOT
