@<TRIPOS>MOLECULE
CI8
   77    80     1     0     0
SMALL
abcg2


@<TRIPOS>ATOM
      1 C1         -16.3090   -12.4310   -29.2600 c3         1 CI8       0.147900
      2 C2         -16.9570   -10.5570   -30.4930 ca         1 CI8       0.052100
      3 C3         -15.9210    -9.7230   -30.8550 ca         1 CI8      -0.034000
      4 C4         -16.1390    -8.3490   -30.8490 ca         1 CI8      -0.231000
      5 C5         -16.3210    -5.9300   -30.8640 cc         1 CI8       0.426200
      6 C6         -16.0230    -4.4620   -30.9040 c3         1 CI8       0.078700
      7 O1         -16.7870   -11.9050   -30.4920 os         1 CI8      -0.359100
      8 S1         -15.0390    -7.0640   -31.2100 ss         1 CI8       0.104800
      9 N1         -14.7890    -4.1710   -31.5750 ns         1 CI8      -0.517900
     10 C7         -14.7080    -4.1430   -32.9280 c          1 CI8       0.649100
     11 O2         -15.6660    -4.4580   -33.6140 o          1 CI8      -0.604100
     12 C8         -13.3240    -3.8340   -33.5000 c5         1 CI8      -0.084000
     13 C9         -12.6420    -2.6730   -32.7830 c3         1 CI8      -0.218400
     14 C10        -13.4710    -1.3790   -32.6690 c          1 CI8       0.712000
     15 O3         -12.9050    -0.4240   -32.1040 o          1 CI8      -0.719500
     16 O4         -14.6230    -1.3950   -33.1470 o          1 CI8      -0.719500
     17 C11        -12.4850    -5.1390   -33.3870 c5         1 CI8      -0.026600
     18 C12        -12.8390    -5.8940   -34.6320 ca         1 CI8      -0.062300
     19 C13        -12.6760    -7.2400   -34.9110 ca         1 CI8      -0.116500
     20 C14        -13.0630    -7.6990   -36.1570 ca         1 CI8       0.114500
     21 F1         -12.9330    -8.9980   -36.4650 f          1 CI8      -0.178500
     22 C15        -13.5930    -6.8350   -37.1000 ca         1 CI8       0.114500
     23 F2         -13.9570    -7.3220   -38.2950 f          1 CI8      -0.178500
     24 C16        -13.7570    -5.4890   -36.8240 ca         1 CI8      -0.116500
     25 C17        -13.3780    -5.0260   -35.5750 ca         1 CI8      -0.062300
     26 C18        -13.4450    -3.6330   -35.0240 c5         1 CI8      -0.026600
     27 N2         -17.4490    -6.4400   -30.5250 nd         1 CI8      -0.563100
     28 C19        -17.3820    -7.8140   -30.4970 ca         1 CI8       0.145400
     29 C20        -18.4340    -8.6610   -30.1350 ca         1 CI8      -0.142000
     30 C21        -18.2160   -10.0260   -30.1170 ca         1 CI8       0.097100
     31 O5         -19.1300   -10.9410   -29.7520 os         1 CI8      -0.371100
     32 C22        -20.3810   -10.5150   -29.2450 c3         1 CI8       0.164600
     33 C23        -21.0860   -11.7400   -28.6960 c3         1 CI8      -0.098400
     34 C24        -21.4350   -12.7100   -29.8150 c3         1 CI8       0.094600
     35 N3         -21.8390   -14.0960   -29.3700 n4         1 CI8      -0.498000
     36 C25        -23.0440   -13.9970   -28.4900 c3         1 CI8       0.080900
     37 C26        -22.1890   -14.8520   -30.6370 c3         1 CI8       0.091100
     38 C27        -22.2750   -16.3600   -30.5560 c3         1 CI8       0.147600
     39 O6         -23.3020   -16.7680   -29.6920 oh         1 CI8      -0.662500
     40 C28        -20.7520   -14.7720   -28.5890 c3         1 CI8       0.091100
     41 C29        -19.4000   -14.8220   -29.2840 c3         1 CI8       0.147600
     42 O7         -18.5900   -15.6140   -28.4520 oh         1 CI8      -0.662500
     43 H1         -16.2220   -13.5090   -29.3830 h1         1 CI8       0.030367
     44 H2         -15.3260   -12.0250   -29.0090 h1         1 CI8       0.030367
     45 H3         -16.9960   -12.2250   -28.4360 h1         1 CI8       0.030367
     46 H4         -14.9640   -10.1460   -31.1330 ha         1 CI8       0.139000
     47 H5         -15.9420    -4.1020   -29.8770 h1         1 CI8       0.086700
     48 H6         -16.8660    -3.9390   -31.3600 h1         1 CI8       0.086700
     49 H7         -14.0180    -3.8530   -31.0130 hn         1 CI8       0.331500
     50 H8         -12.3080    -2.9720   -31.7830 hc         1 CI8       0.029200
     51 H9         -11.7120    -2.4460   -33.3150 hc         1 CI8       0.029200
     52 H11        -12.6620    -5.6960   -32.4650 hc         1 CI8       0.068200
     53 H12        -11.4190    -4.8860   -33.3970 hc         1 CI8       0.068200
     54 H13        -12.2670    -7.9310   -34.1840 ha         1 CI8       0.129000
     55 H14        -14.1800    -4.8340   -37.5760 ha         1 CI8       0.129000
     56 H15        -12.5880    -3.0530   -35.3830 hc         1 CI8       0.068200
     57 H16        -14.3410    -3.0920   -35.3200 hc         1 CI8       0.068200
     58 H17        -19.3870    -8.2260   -29.8670 ha         1 CI8       0.131000
     59 H18        -20.2440    -9.7910   -28.4370 h1         1 CI8       0.059700
     60 H19        -20.9740   -10.0320   -30.0300 h1         1 CI8       0.059700
     61 H20        -21.9880   -11.4010   -28.1850 hc         1 CI8       0.070700
     62 H21        -20.4380   -12.1910   -27.9430 hc         1 CI8       0.070700
     63 H22        -20.6010   -12.8380   -30.5030 hx         1 CI8       0.099700
     64 H23        -22.2740   -12.3230   -30.3940 hx         1 CI8       0.099700
     65 H24        -22.7920   -13.4290   -27.6010 hx         1 CI8       0.096700
     66 H25        -23.8370   -13.4930   -29.0380 hx         1 CI8       0.096700
     67 H26        -23.3630   -14.9930   -28.2070 hx         1 CI8       0.096700
     68 H27        -21.4280   -14.6090   -31.3770 hx         1 CI8       0.101200
     69 H28        -23.1300   -14.4310   -30.9890 hx         1 CI8       0.101200
     70 H29        -22.4580   -16.6750   -31.5920 h1         1 CI8       0.054700
     71 H30        -21.3060   -16.7880   -30.2770 h1         1 CI8       0.054700
     72 H31        -23.2680   -17.7260   -29.6110 ho         1 CI8       0.480500
     73 H32        -20.6580   -14.2480   -27.6390 hx         1 CI8       0.101200
     74 H33        -21.1030   -15.7770   -28.3580 hx         1 CI8       0.101200
     75 H34        -19.4870   -15.2490   -30.2910 h1         1 CI8       0.054700
     76 H35        -18.9950   -13.8110   -29.3960 h1         1 CI8       0.054700
     77 H36        -17.6910   -15.5870   -28.7920 ho         1 CI8       0.480500
@<TRIPOS>BOND
     1     1     7 1   
     2     1    43 1   
     3     1    44 1   
     4     1    45 1   
     5     2     3 ar  
     6     2     7 1   
     7     2    30 ar  
     8     3     4 ar  
     9     3    46 1   
    10     4     8 1   
    11     4    28 ar  
    12     5     6 1   
    13     5     8 1   
    14     5    27 2   
    15     6     9 1   
    16     6    47 1   
    17     6    48 1   
    18     9    10 1   
    19     9    49 1   
    20    10    11 2   
    21    10    12 1   
    22    12    13 1   
    23    12    17 1   
    24    12    26 1   
    25    13    14 1   
    26    13    50 1   
    27    13    51 1   
    28    14    15 1   
    29    14    16 1   
    30    17    18 1   
    31    17    52 1   
    32    17    53 1   
    33    18    19 ar  
    34    18    25 ar  
    35    19    20 ar  
    36    19    54 1   
    37    20    21 1   
    38    20    22 ar  
    39    22    23 1   
    40    22    24 ar  
    41    24    25 ar  
    42    24    55 1   
    43    25    26 1   
    44    26    56 1   
    45    26    57 1   
    46    27    28 1   
    47    28    29 ar  
    48    29    30 ar  
    49    29    58 1   
    50    30    31 1   
    51    31    32 1   
    52    32    33 1   
    53    32    59 1   
    54    32    60 1   
    55    33    34 1   
    56    33    61 1   
    57    33    62 1   
    58    34    35 1   
    59    34    63 1   
    60    34    64 1   
    61    35    36 1   
    62    35    37 1   
    63    35    40 1   
    64    36    65 1   
    65    36    66 1   
    66    36    67 1   
    67    37    38 1   
    68    37    68 1   
    69    37    69 1   
    70    38    39 1   
    71    38    70 1   
    72    38    71 1   
    73    39    72 1   
    74    40    41 1   
    75    40    73 1   
    76    40    74 1   
    77    41    42 1   
    78    41    75 1   
    79    41    76 1   
    80    42    77 1   
@<TRIPOS>SUBSTRUCTURE
     1 CI8         1 TEMP              0 ****  ****    0 ROOT
