@<TRIPOS>MOLECULE
CI9
   95    96     1     0     0
SMALL
No Charge or Current Charge


@<TRIPOS>ATOM
      1 OAA         12.4840    -5.3440    -2.1140 o          1 CI9      -0.775500
      2 CBN         12.6920    -4.1410    -2.0560 c          1 CI9       0.710000
      3 OAG         13.7510    -3.6270    -2.3820 o          1 CI9      -0.775500
      4 CAZ         11.5840    -3.2360    -1.4880 c3         1 CI9      -0.198400
      5 CBB         11.7330    -3.1080     0.0510 c3         1 CI9      -0.048400
      6 CBW         10.5980    -2.3120     0.7490 c3         1 CI9      -0.038300
      7 CBP         10.7290    -2.3840     2.3040 c          1 CI9       0.712000
      8 OAI          9.8720    -2.9930     2.9300 o          1 CI9      -0.762000
      9 OAC         11.6360    -1.7670     2.8480 o          1 CI9      -0.762000
     10 NBI         10.5440    -0.8970     0.3030 ns         1 CI9      -0.446900
     11 CBQ          9.6990    -0.3950    -0.6540 c          1 CI9       0.650100
     12 OAD          8.8600    -1.0600    -1.2420 o          1 CI9      -0.674100
     13 N            9.9020     0.9450    -0.8710 ns         1 CI9      -0.480900
     14 CA           9.1340     1.7880    -1.8230 c3         1 CI9      -0.032300
     15 C           10.0870     2.7710    -2.5740 c          1 CI9       0.705000
     16 OXT         10.8250     3.4950    -1.9170 o          1 CI9      -0.739500
     17 O           10.1140     2.7280    -3.7970 o          1 CI9      -0.739500
     18 CB           7.9730     2.5490    -1.1300 c3         1 CI9      -0.059400
     19 CAP          6.8900     1.6380    -0.5060 c3         1 CI9      -0.080400
     20 CAQ          5.7070     2.4310     0.0920 c3         1 CI9      -0.094400
     21 CBC          4.6300     1.5220     0.7230 c3         1 CI9       0.064600
     22 NBX          3.4930     2.2730     1.2770 na         1 CI9       0.149800
     23 CAO          2.4080     2.7620     0.5940 cc         1 CI9      -0.187000
     24 NBF          3.4250     2.5710     2.6060 nc         1 CI9      -0.194800
     25 NBE          2.3150     3.2380     2.7820 nd         1 CI9      -0.380000
     26 CBR          1.6670     3.3700     1.5690 cd         1 CI9       0.165300
     27 CBD          0.3500     4.1010     1.4190 c3         1 CI9       0.149300
     28 OBM         -0.5260     3.3500     0.5570 os         1 CI9      -0.443000
     29 CAY         -1.8120     3.9600     0.3340 c3         1 CI9       0.164600
     30 CAX         -2.6500     3.0490    -0.5950 c3         1 CI9       0.161600
     31 OBL         -3.0610     1.8790     0.1390 os         1 CI9      -0.431000
     32 CAW         -3.8340     0.9340    -0.6270 c3         1 CI9       0.163600
     33 CAV         -4.2200    -0.2570     0.2810 c3         1 CI9       0.159600
     34 OBK         -5.2300     0.1700     1.2160 os         1 CI9      -0.439000
     35 CAU         -5.6620    -0.8500     2.1380 c3         1 CI9       0.163600
     36 CAT         -6.7500    -0.2640     3.0700 c3         1 CI9       0.160600
     37 OBJ         -7.9690    -0.0840     2.3190 os         1 CI9      -0.461000
     38 CAS         -9.0650     0.4640     3.0840 c3         1 CI9       0.149600
     39 CAR        -10.3050     0.6000     2.1610 c3         1 CI9       0.199800
     40 NBG        -10.6430    -0.6830     1.5140 nu         1 CI9      -0.921200
     41 CBT        -11.6210    -0.8670     0.5300 ca         1 CI9       0.347000
     42 CAM        -12.8910    -0.3090     0.7500 ca         1 CI9      -0.190000
     43 CAL        -13.9160    -0.4560    -0.1960 ca         1 CI9      -0.056000
     44 CBS        -13.6870    -1.1620    -1.3920 ca         1 CI9       0.095000
     45 NBY        -14.7290    -1.3120    -2.3540 nh         1 CI9      -0.217400
     46 OAJ        -15.8090    -0.4340    -2.4020 oh         1 CI9      -0.471300
     47 OAE        -14.4740    -1.7020    -3.6670 oh         1 CI9      -0.471300
     48 CAN        -12.4150    -1.7310    -1.6090 ca         1 CI9      -0.022000
     49 CBU        -11.3640    -1.6100    -0.6670 ca         1 CI9       0.113000
     50 NBZ        -10.0820    -2.2010    -0.9790 nh         1 CI9      -0.262400
     51 OAK         -9.1540    -2.5400     0.0180 oh         1 CI9      -0.467300
     52 OAF         -9.9780    -3.2080    -1.9490 oh         1 CI9      -0.467300
     53 HAZ1        11.6810    -2.2210    -1.8900 hc         1 CI9       0.022700
     54 HAZ2        10.5980    -3.6870    -1.6580 hc         1 CI9       0.022700
     55 HBB1        11.7600    -4.1160     0.4840 hc         1 CI9       0.035700
     56 HBB2        12.6990    -2.6430     0.2830 hc         1 CI9       0.035700
     57 HBW          9.6420    -2.7890     0.4950 h1         1 CI9       0.057700
     58 HBI         11.1820    -0.2440     0.7390 hn         1 CI9       0.269500
     59 H           10.6390     1.3890    -0.3400 hn         1 CI9       0.266500
     60 HA           8.7000     1.1320    -2.5880 h1         1 CI9       0.063700
     61 HB1C         8.3830     3.2060    -0.3530 hc         1 CI9       0.029700
     62 HB2C         7.4970     3.2010    -1.8730 hc         1 CI9       0.029700
     63 HAP1         6.5120     0.9500    -1.2740 hc         1 CI9       0.053700
     64 HAP2         7.3400     1.0230     0.2830 hc         1 CI9       0.053700
     65 HAQ1         6.0840     3.1230     0.8550 hc         1 CI9       0.042700
     66 HAQ2         5.2450     3.0410    -0.6950 hc         1 CI9       0.042700
     67 HBC1         4.2450     0.8290    -0.0350 h1         1 CI9       0.074200
     68 HBC2         5.0800     0.9230     1.5250 h1         1 CI9       0.074200
     69 HAO          2.2540     2.6460    -0.4690 h4         1 CI9       0.168000
     70 HBD1        -0.1060     4.2340     2.4090 h1         1 CI9       0.029700
     71 HBD2         0.5450     5.0960     0.9980 h1         1 CI9       0.029700
     72 HAY1        -2.3470     4.1110     1.2810 h1         1 CI9       0.024700
     73 HAY2        -1.6890     4.9390    -0.1480 h1         1 CI9       0.024700
     74 HAX1        -3.5300     3.6080    -0.9390 h1         1 CI9       0.024200
     75 HAX2        -2.0540     2.7740    -1.4750 h1         1 CI9       0.024200
     76 HAW1        -4.7440     1.4020    -1.0260 h1         1 CI9       0.026200
     77 HAW2        -3.2440     0.5590    -1.4730 h1         1 CI9       0.026200
     78 HAV1        -4.6040    -1.0720    -0.3470 h1         1 CI9       0.032200
     79 HAV2        -3.3260    -0.6230     0.8050 h1         1 CI9       0.032200
     80 HAU1        -6.0660    -1.7210     1.6040 h1         1 CI9       0.029700
     81 HAU2        -4.8170    -1.1890     2.7520 h1         1 CI9       0.029700
     82 HAT1        -6.9160    -0.9610     3.9010 h1         1 CI9       0.034200
     83 HAT2        -6.4000     0.6890     3.4880 h1         1 CI9       0.034200
     84 HAS1        -9.3130    -0.1930     3.9270 h1         1 CI9       0.033200
     85 HAS2        -8.8040     1.4530     3.4850 h1         1 CI9       0.033200
     86 HAR1       -11.1520     0.9640     2.7580 h1         1 CI9       0.046700
     87 HAR2       -10.0880     1.3570     1.3940 h1         1 CI9       0.046700
     88 HBG         -9.8230    -1.2670     1.3210 hn         1 CI9       0.490000
     89 HAM        -13.0930     0.2370     1.6660 ha         1 CI9       0.118000
     90 HAL        -14.8910    -0.0200     0.0060 ha         1 CI9       0.124000
     91 HAN        -12.2410    -2.2770    -2.5300 ha         1 CI9       0.147000
     92 HAE        -15.0920    -2.4650    -3.7470 ho         1 CI9       0.450500
     93 HAJ        -15.4070     0.3050    -2.9140 ho         1 CI9       0.450500
     94 HAK         -8.3300    -2.1450    -0.3480 ho         1 CI9       0.459000
     95 HAF         -9.3440    -2.8010    -2.5840 ho         1 CI9       0.459000
@<TRIPOS>BOND
     1     1     2 1   
     2     2     3 1   
     3     2     4 1   
     4     4     5 1   
     5     4    53 1   
     6     4    54 1   
     7     5     6 1   
     8     5    55 1   
     9     5    56 1   
    10     6     7 1   
    11     6    10 1   
    12     6    57 1   
    13     7     8 1   
    14     7     9 1   
    15    10    11 1   
    16    10    58 1   
    17    11    12 2   
    18    11    13 1   
    19    13    14 1   
    20    13    59 1   
    21    14    15 1   
    22    14    18 1   
    23    14    60 1   
    24    15    16 1   
    25    15    17 1   
    26    18    19 1   
    27    18    61 1   
    28    18    62 1   
    29    19    20 1   
    30    19    63 1   
    31    19    64 1   
    32    20    21 1   
    33    20    65 1   
    34    20    66 1   
    35    21    22 1   
    36    21    67 1   
    37    21    68 1   
    38    22    23 1   
    39    22    24 1   
    40    23    26 2   
    41    23    69 1   
    42    24    25 2   
    43    25    26 1   
    44    26    27 1   
    45    27    28 1   
    46    27    70 1   
    47    27    71 1   
    48    28    29 1   
    49    29    30 1   
    50    29    72 1   
    51    29    73 1   
    52    30    31 1   
    53    30    74 1   
    54    30    75 1   
    55    31    32 1   
    56    32    33 1   
    57    32    76 1   
    58    32    77 1   
    59    33    34 1   
    60    33    78 1   
    61    33    79 1   
    62    34    35 1   
    63    35    36 1   
    64    35    80 1   
    65    35    81 1   
    66    36    37 1   
    67    36    82 1   
    68    36    83 1   
    69    37    38 1   
    70    38    39 1   
    71    38    84 1   
    72    38    85 1   
    73    39    40 1   
    74    39    86 1   
    75    39    87 1   
    76    40    41 1   
    77    40    88 1   
    78    41    42 ar  
    79    41    49 ar  
    80    42    43 ar  
    81    42    89 1   
    82    43    44 ar  
    83    43    90 1   
    84    44    45 1   
    85    44    48 ar  
    86    45    46 1   
    87    45    47 1   
    88    46    93 1   
    89    47    92 1   
    90    48    49 ar  
    91    48    91 1   
    92    49    50 1   
    93    50    51 1   
    94    50    52 1   
    95    51    94 1   
    96    52    95 1   
@<TRIPOS>SUBSTRUCTURE
     1 CI9         1 TEMP              0 ****  ****    0 ROOT
