@<TRIPOS>MOLECULE
CI9
   95    96     1     0     0
SMALL
abcg2


@<TRIPOS>ATOM
      1 OAA         15.7640    -1.5830     1.9290 o          1 CI9      -0.775500
      2 CBN         14.7680    -2.3240     1.7790 c          1 CI9       0.710000
      3 OAG         14.5070    -3.3460     2.4450 o          1 CI9      -0.775500
      4 CAZ         13.7870    -1.9140     0.6680 c3         1 CI9      -0.198400
      5 CBB         12.6190    -2.8600     0.4370 c3         1 CI9      -0.048400
      6 CBW         11.7140    -2.4460    -0.7250 c3         1 CI9      -0.038300
      7 CBP         10.6610    -3.5480    -0.9990 c          1 CI9       0.712000
      8 OAI         11.1080    -4.6010    -1.5010 o          1 CI9      -0.762000
      9 OAC          9.4820    -3.3160    -0.6780 o          1 CI9      -0.762000
     10 NBI         11.1280    -1.1540    -0.4470 ns         1 CI9      -0.446900
     11 CBQ         10.3900    -0.5220    -1.4010 c          1 CI9       0.650100
     12 OAD         10.4750    -0.8050    -2.5930 o          1 CI9      -0.674100
     13 N            9.5520     0.4460    -0.9340 ns         1 CI9      -0.480900
     14 CA           9.0270     1.4540    -1.8260 c3         1 CI9      -0.032300
     15 C           10.0890     2.4830    -2.2910 c          1 CI9       0.705000
     16 OXT         11.2160     2.4300    -1.7680 o          1 CI9      -0.739500
     17 O            9.7010     3.2890    -3.1620 o          1 CI9      -0.739500
     18 CB           7.8440     2.1540    -1.1580 c3         1 CI9      -0.059400
     19 CAP          6.6610     1.2330    -0.8930 c3         1 CI9      -0.080400
     20 CAQ          5.5080     1.9560    -0.2100 c3         1 CI9      -0.094400
     21 CBC          4.3180     1.0320    -0.0010 c3         1 CI9       0.064600
     22 NBX          3.1920     1.7180     0.6060 na         1 CI9       0.149800
     23 CAO          2.2020     2.3820    -0.0070 cc         1 CI9      -0.187000
     24 NBF          3.0920     1.8240     1.9180 nc         1 CI9      -0.194800
     25 NBE          2.0460     2.5330     2.1800 nd         1 CI9      -0.380000
     26 CBR          1.4610     2.9070     1.0230 cd         1 CI9       0.165300
     27 CBD          0.2270     3.7330     0.9610 c3         1 CI9       0.149300
     28 OBM         -0.7240     3.0610     0.1730 os         1 CI9      -0.443000
     29 CAY         -1.8890     3.8220    -0.0370 c3         1 CI9       0.164600
     30 CAX         -2.8460     3.0430    -0.9010 c3         1 CI9       0.161600
     31 OBL         -3.3000     1.9120    -0.2030 os         1 CI9      -0.431000
     32 CAW         -4.1310     1.0890    -0.9800 c3         1 CI9       0.163600
     33 CAV         -4.5920    -0.0860    -0.1560 c3         1 CI9       0.159600
     34 OBK         -5.4500     0.3600     0.8630 os         1 CI9      -0.439000
     35 CAU         -5.8510    -0.6710     1.7280 c3         1 CI9       0.163600
     36 CAT         -6.8110    -0.1310     2.7560 c3         1 CI9       0.160600
     37 OBJ         -8.0050     0.2610     2.1260 os         1 CI9      -0.461000
     38 CAS         -9.0130     0.6520     3.0260 c3         1 CI9       0.149600
     39 CAR        -10.3040     0.8310     2.2570 c3         1 CI9       0.199800
     40 NBG        -10.6710    -0.4130     1.6210 nu         1 CI9      -0.921200
     41 CBT        -11.8060    -0.5060     0.8500 ca         1 CI9       0.347000
     42 CAM        -12.8390     0.4300     0.8990 ca         1 CI9      -0.190000
     43 CAL        -13.9820     0.2930     0.1240 ca         1 CI9      -0.056000
     44 CBS        -14.1210    -0.7820    -0.7440 ca         1 CI9       0.095000
     45 NBY        -15.3220    -0.9780    -1.4900 nh         1 CI9      -0.217400
     46 OAJ        -15.9980     0.2020    -1.7030 oh         1 CI9      -0.471300
     47 OAE        -15.0090    -1.5460    -2.7160 oh         1 CI9      -0.471300
     48 CAN        -13.1020    -1.7310    -0.8040 ca         1 CI9      -0.022000
     49 CBU        -11.9700    -1.5970    -0.0250 ca         1 CI9       0.113000
     50 NBZ        -10.8930    -2.5380    -0.0490 nh         1 CI9      -0.262400
     51 OAK        -11.1070    -3.4140     1.0210 oh         1 CI9      -0.467300
     52 OAF        -10.9380    -3.2800    -1.2140 oh         1 CI9      -0.467300
     53 HAZ1        13.4190    -0.9080     0.8950 hc         1 CI9       0.022700
     54 HAZ2        14.3520    -1.8030    -0.2650 hc         1 CI9       0.022700
     55 HBB1        12.9940    -3.8610     0.2260 hc         1 CI9       0.035700
     56 HBB2        12.0190    -2.9450     1.3500 hc         1 CI9       0.035700
     57 HBW         12.3420    -2.3510    -1.6170 h1         1 CI9       0.057700
     58 HBI         10.8210    -1.0280     0.5060 hn         1 CI9       0.269500
     59 H            9.7350     0.7720     0.0030 hn         1 CI9       0.266500
     60 HA           8.6540     0.9470    -2.7200 h1         1 CI9       0.063700
     61 HB1C         8.1740     2.6140    -0.2180 hc         1 CI9       0.029700
     62 HB2C         7.5260     2.9750    -1.8020 hc         1 CI9       0.029700
     63 HAP1         6.3160     0.8130    -1.8440 hc         1 CI9       0.053700
     64 HAP2         6.9770     0.3840    -0.2810 hc         1 CI9       0.053700
     65 HAQ1         5.8340     2.3510     0.7560 hc         1 CI9       0.042700
     66 HAQ2         5.1960     2.8130    -0.8150 hc         1 CI9       0.042700
     67 HBC1         3.9750     0.6200    -0.9500 h1         1 CI9       0.074200
     68 HBC2         4.5800     0.1940     0.6450 h1         1 CI9       0.074200
     69 HAO          2.0990     2.4270    -1.0780 h4         1 CI9       0.168000
     70 HBD1        -0.1430     3.9100     1.9800 h1         1 CI9       0.029700
     71 HBD2         0.4520     4.7200     0.5320 h1         1 CI9       0.029700
     72 HAY1        -2.3690     4.0820     0.9170 h1         1 CI9       0.024700
     73 HAY2        -1.6560     4.7680    -0.5440 h1         1 CI9       0.024700
     74 HAX1        -3.6820     3.7010    -1.1750 h1         1 CI9       0.024200
     75 HAX2        -2.3480     2.7560    -1.8390 h1         1 CI9       0.024200
     76 HAW1        -5.0020     1.6450    -1.3560 h1         1 CI9       0.026200
     77 HAW2        -3.5950     0.7060    -1.8590 h1         1 CI9       0.026200
     78 HAV1        -5.1050    -0.7940    -0.8220 h1         1 CI9       0.032200
     79 HAV2        -3.7220    -0.6140     0.2600 h1         1 CI9       0.032200
     80 HAU1        -6.3270    -1.4920     1.1720 h1         1 CI9       0.029700
     81 HAU2        -4.9880    -1.1030     2.2550 h1         1 CI9       0.029700
     82 HAT1        -6.9990    -0.9200     3.4960 h1         1 CI9       0.034200
     83 HAT2        -6.3540     0.7110     3.2950 h1         1 CI9       0.034200
     84 HAS1        -9.1520    -0.1090     3.8060 h1         1 CI9       0.033200
     85 HAS2        -8.7570     1.5940     3.5290 h1         1 CI9       0.033200
     86 HAR1       -11.0730     1.1280     2.9740 h1         1 CI9       0.046700
     87 HAR2       -10.2030     1.6560     1.5380 h1         1 CI9       0.046700
     88 HBG         -9.8830    -0.9040     1.2240 hn         1 CI9       0.490000
     89 HAM        -12.7640     1.2920     1.5480 ha         1 CI9       0.118000
     90 HAL        -14.7550     1.0430     0.2160 ha         1 CI9       0.124000
     91 HAN        -13.1890    -2.5740    -1.4740 ha         1 CI9       0.147000
     92 HAE        -15.6920    -2.2140    -2.8560 ho         1 CI9       0.450500
     93 HAJ        -15.3980     0.8250    -2.1510 ho         1 CI9       0.450500
     94 HAK        -10.2310    -3.5520     1.4010 ho         1 CI9       0.459000
     95 HAF        -10.0220    -3.3060    -1.5150 ho         1 CI9       0.459000
@<TRIPOS>BOND
     1     1     2 1   
     2     2     3 1   
     3     2     4 1   
     4     4     5 1   
     5     4    53 1   
     6     4    54 1   
     7     5     6 1   
     8     5    55 1   
     9     5    56 1   
    10     6     7 1   
    11     6    10 1   
    12     6    57 1   
    13     7     8 1   
    14     7     9 1   
    15    10    11 1   
    16    10    58 1   
    17    11    12 2   
    18    11    13 1   
    19    13    14 1   
    20    13    59 1   
    21    14    15 1   
    22    14    18 1   
    23    14    60 1   
    24    15    16 1   
    25    15    17 1   
    26    18    19 1   
    27    18    61 1   
    28    18    62 1   
    29    19    20 1   
    30    19    63 1   
    31    19    64 1   
    32    20    21 1   
    33    20    65 1   
    34    20    66 1   
    35    21    22 1   
    36    21    67 1   
    37    21    68 1   
    38    22    23 1   
    39    22    24 1   
    40    23    26 2   
    41    23    69 1   
    42    24    25 2   
    43    25    26 1   
    44    26    27 1   
    45    27    28 1   
    46    27    70 1   
    47    27    71 1   
    48    28    29 1   
    49    29    30 1   
    50    29    72 1   
    51    29    73 1   
    52    30    31 1   
    53    30    74 1   
    54    30    75 1   
    55    31    32 1   
    56    32    33 1   
    57    32    76 1   
    58    32    77 1   
    59    33    34 1   
    60    33    78 1   
    61    33    79 1   
    62    34    35 1   
    63    35    36 1   
    64    35    80 1   
    65    35    81 1   
    66    36    37 1   
    67    36    82 1   
    68    36    83 1   
    69    37    38 1   
    70    38    39 1   
    71    38    84 1   
    72    38    85 1   
    73    39    40 1   
    74    39    86 1   
    75    39    87 1   
    76    40    41 1   
    77    40    88 1   
    78    41    42 ar  
    79    41    49 ar  
    80    42    43 ar  
    81    42    89 1   
    82    43    44 ar  
    83    43    90 1   
    84    44    45 1   
    85    44    48 ar  
    86    45    46 1   
    87    45    47 1   
    88    46    93 1   
    89    47    92 1   
    90    48    49 ar  
    91    48    91 1   
    92    49    50 1   
    93    50    51 1   
    94    50    52 1   
    95    51    94 1   
    96    52    95 1   
@<TRIPOS>SUBSTRUCTURE
     1 CI9         1 TEMP              0 ****  ****    0 ROOT
