@<TRIPOS>MOLECULE
CIA
   48    53     1     0     0
SMALL
No Charge or Current Charge


@<TRIPOS>ATOM
      1 C3          -3.4530    -4.3330    -0.7350 ca         1 CIA      -0.088000
      2 C2          -4.2550    -3.2860    -1.2500 ca         1 CIA      -0.139000
      3 C1          -3.8720    -1.9400    -1.0700 ca         1 CIA      -0.058000
      4 C6          -2.6840    -1.6860    -0.3720 ca         1 CIA      -0.084800
      5 C7          -2.0520    -0.4450    -0.0380 cc         1 CIA      -0.133400
      6 C8          -0.8840    -0.7740     0.6460 cd         1 CIA      -0.083300
      7 N9          -0.7920    -2.1820     0.7700 na         1 CIA      -0.210700
      8 C5          -1.9060    -2.6940     0.1280 ca         1 CIA      -0.038200
      9 C4          -2.2620    -4.0400    -0.0370 ca         1 CIA      -0.129000
     10 C13          0.1190     0.2610     1.1550 c6         1 CIA       0.232200
     11 N12         -0.2470     1.5930     0.5620 n          1 CIA      -0.394800
     12 C17          0.6100     2.4320    -0.1960 c          1 CIA       0.553000
     13 O20          1.8240     2.2930    -0.2310 o          1 CIA      -0.543000
     14 C16         -0.0440     3.5860    -0.9980 c6         1 CIA       0.011000
     15 N15         -1.3590     4.0890    -0.5090 n          1 CIA      -0.389800
     16 C31         -2.0710     3.3920     0.4830 c          1 CIA       0.554000
     17 O32         -2.8380     3.9740     1.2400 o          1 CIA      -0.548000
     18 C11         -1.7080     1.9020     0.6930 c6         1 CIA       0.040700
     19 C10         -2.4510     0.9850    -0.3130 c6         1 CIA       0.002800
     20 C18         -1.7080     5.4930    -0.8160 c3         1 CIA       0.083300
     21 C22          1.5630    -0.2230     0.9430 ca         1 CIA      -0.091300
     22 C27          2.5030    -0.1340     2.0030 ca         1 CIA      -0.095000
     23 C26          3.8290    -0.5860     1.8290 ca         1 CIA      -0.098000
     24 C25          4.1850    -1.1180     0.5840 ca         1 CIA       0.059100
     25 O30          5.4050    -1.6070     0.2480 os         1 CIA      -0.344100
     26 C29          5.2350    -1.9540    -1.1720 c5         1 CIA       0.372600
     27 O28          3.8260    -1.7660    -1.5550 os         1 CIA      -0.343100
     28 C24          3.2860    -1.2080    -0.4410 ca         1 CIA       0.049100
     29 C23          1.9630    -0.7740    -0.3000 ca         1 CIA      -0.067000
     30 H3          -3.7550    -5.3680    -0.8790 ha         1 CIA       0.111000
     31 H2          -5.1720    -3.5210    -1.7870 ha         1 CIA       0.113000
     32 H1          -4.4790    -1.1270    -1.4610 ha         1 CIA       0.117000
     33 HN9         -0.0490    -2.7080     1.2180 hn         1 CIA       0.354000
     34 H4          -1.6390    -4.8370     0.3620 ha         1 CIA       0.114000
     35 H13         -0.0320     0.3480     2.2410 h1         1 CIA       0.072700
     36 H161        -0.1690     3.2160    -2.0240 h1         1 CIA       0.074200
     37 H162         0.6830     4.4100    -1.0200 h1         1 CIA       0.074200
     38 H11         -2.0350     1.6530     1.7120 h1         1 CIA       0.069700
     39 H101        -3.5360     1.1150    -0.2060 hc         1 CIA       0.074700
     40 H102        -2.1990     1.2650    -1.3450 hc         1 CIA       0.074700
     41 H181        -1.2130     5.8120    -1.7430 h1         1 CIA       0.049033
     42 H182        -2.7930     5.5890    -0.9460 h1         1 CIA       0.049033
     43 H183        -1.3830     6.1440     0.0060 h1         1 CIA       0.049033
     44 H27          2.2060     0.2860     2.9620 ha         1 CIA       0.116000
     45 H26          4.5550    -0.5240     2.6360 ha         1 CIA       0.134000
     46 H291         5.8620    -1.2910    -1.7800 h2         1 CIA       0.064700
     47 H292         5.5250    -2.9990    -1.3340 h2         1 CIA       0.064700
     48 H23          1.2660    -0.8560    -1.1310 ha         1 CIA       0.142000
@<TRIPOS>BOND
     1     1     2 ar  
     2     1     9 ar  
     3     1    30 1   
     4     2     3 ar  
     5     2    31 1   
     6     3     4 ar  
     7     3    32 1   
     8     4     5 1   
     9     4     8 ar  
    10     5     6 2   
    11     5    19 1   
    12     6     7 1   
    13     6    10 1   
    14     7     8 1   
    15     7    33 1   
    16     8     9 ar  
    17     9    34 1   
    18    10    11 1   
    19    10    21 1   
    20    10    35 1   
    21    11    12 1   
    22    11    18 1   
    23    12    13 2   
    24    12    14 1   
    25    14    15 1   
    26    14    36 1   
    27    14    37 1   
    28    15    16 1   
    29    15    20 1   
    30    16    17 2   
    31    16    18 1   
    32    18    19 1   
    33    18    38 1   
    34    19    39 1   
    35    19    40 1   
    36    20    41 1   
    37    20    42 1   
    38    20    43 1   
    39    21    22 ar  
    40    21    29 ar  
    41    22    23 ar  
    42    22    44 1   
    43    23    24 ar  
    44    23    45 1   
    45    24    25 1   
    46    24    28 ar  
    47    25    26 1   
    48    26    27 1   
    49    26    46 1   
    50    26    47 1   
    51    27    28 1   
    52    28    29 ar  
    53    29    48 1   
@<TRIPOS>SUBSTRUCTURE
     1 CIA         1 TEMP              0 ****  ****    0 ROOT
