@<TRIPOS>MOLECULE
CIA
   48    53     1     0     0
SMALL
bcc


@<TRIPOS>ATOM
      1 C3          -3.6120    -4.4280     0.3460 ca         1 CIA      -0.106000
      2 C2          -4.1890    -3.6230    -0.6490 ca         1 CIA      -0.157000
      3 C1          -3.7170    -2.3470    -0.8950 ca         1 CIA      -0.076000
      4 C6          -2.6470    -1.8640    -0.1360 ca         1 CIA      -0.084800
      5 C7          -1.9150    -0.6370    -0.1060 cc         1 CIA      -0.133400
      6 C8          -0.9790    -0.7630     0.8680 cd         1 CIA      -0.083300
      7 N9          -1.0670    -1.9910     1.4570 na         1 CIA      -0.160400
      8 C5          -2.0800    -2.6920     0.8630 ca         1 CIA      -0.038200
      9 C4          -2.5550    -3.9760     1.1150 ca         1 CIA      -0.147000
     10 C13          0.0580     0.2470     1.2080 c6         1 CIA       0.232200
     11 N12         -0.3100     1.5550     0.6490 n          1 CIA      -0.461800
     12 C17          0.3950     2.5940     1.1510 c          1 CIA       0.695500
     13 O20          1.3240     2.4530     1.9260 o          1 CIA      -0.618500
     14 C16         -0.0310     3.9750     0.7300 c6         1 CIA       0.011000
     15 N15         -0.7340     4.0200    -0.5280 n          1 CIA      -0.456800
     16 C31         -1.6160     3.0660    -0.8520 c          1 CIA       0.696500
     17 O32         -2.4190     3.1780    -1.7650 o          1 CIA      -0.623500
     18 C11         -1.6020     1.7900    -0.0110 c6         1 CIA       0.040700
     19 C10         -2.0280     0.6150    -0.8930 c6         1 CIA       0.002800
     20 C18         -0.7640     5.3000    -1.2090 c3         1 CIA       0.083300
     21 C22          1.4050    -0.2220     0.6910 ca         1 CIA      -0.091300
     22 C27          2.3210    -0.7760     1.5690 ca         1 CIA      -0.113000
     23 C26          3.5500    -1.2850     1.1290 ca         1 CIA      -0.116000
     24 C25          3.8090    -1.1980    -0.2150 ca         1 CIA       0.059100
     25 O30          4.9000    -1.6160    -0.9040 os         1 CIA      -0.320900
     26 C29          4.7530    -1.1010    -2.2190 c5         1 CIA       0.326200
     27 O28          3.3970    -0.6950    -2.3550 os         1 CIA      -0.319900
     28 C24          2.8960    -0.6390    -1.0970 ca         1 CIA       0.049100
     29 C23          1.6850    -0.1490    -0.6820 ca         1 CIA      -0.085000
     30 H3          -4.0010    -5.4230     0.5150 ha         1 CIA       0.129000
     31 H2          -5.0150    -4.0120    -1.2300 ha         1 CIA       0.131000
     32 H1          -4.1700    -1.7310    -1.6630 ha         1 CIA       0.135000
     33 HN9         -0.4870    -2.3290     2.2080 hn         1 CIA       0.303700
     34 H4          -2.1120    -4.5990     1.8810 ha         1 CIA       0.132000
     35 H13          0.1290     0.3390     2.2970 h1         1 CIA       0.072700
     36 H161         0.8710     4.5820     0.6530 h1         1 CIA       0.074200
     37 H162        -0.6330     4.4080     1.5400 h1         1 CIA       0.074200
     38 H11         -2.3770     1.9190     0.7570 h1         1 CIA       0.069700
     39 H101        -3.0540     0.7880    -1.2150 hc         1 CIA       0.074700
     40 H102        -1.4150     0.5800    -1.7990 hc         1 CIA       0.074700
     41 H181         0.2330     5.7360    -1.1920 h1         1 CIA       0.049033
     42 H182        -1.0670     5.1690    -2.2430 h1         1 CIA       0.049033
     43 H183        -1.4550     5.9920    -0.7240 h1         1 CIA       0.049033
     44 H27          2.0900    -0.8090     2.6260 ha         1 CIA       0.134000
     45 H26          4.2610    -1.7140     1.8220 ha         1 CIA       0.152000
     46 H291         5.4130    -0.2370    -2.3570 h2         1 CIA       0.064700
     47 H292         4.9810    -1.8770    -2.9490 h2         1 CIA       0.064700
     48 H23          0.9840     0.2850    -1.3830 ha         1 CIA       0.160000
@<TRIPOS>BOND
     1     1     2 ar  
     2     1     9 ar  
     3     1    30 1   
     4     2     3 ar  
     5     2    31 1   
     6     3     4 ar  
     7     3    32 1   
     8     4     5 1   
     9     4     8 ar  
    10     5     6 2   
    11     5    19 1   
    12     6     7 1   
    13     6    10 1   
    14     7     8 1   
    15     7    33 1   
    16     8     9 ar  
    17     9    34 1   
    18    10    11 1   
    19    10    21 1   
    20    10    35 1   
    21    11    12 1   
    22    11    18 1   
    23    12    13 2   
    24    12    14 1   
    25    14    15 1   
    26    14    36 1   
    27    14    37 1   
    28    15    16 1   
    29    15    20 1   
    30    16    17 2   
    31    16    18 1   
    32    18    19 1   
    33    18    38 1   
    34    19    39 1   
    35    19    40 1   
    36    20    41 1   
    37    20    42 1   
    38    20    43 1   
    39    21    22 ar  
    40    21    29 ar  
    41    22    23 ar  
    42    22    44 1   
    43    23    24 ar  
    44    23    45 1   
    45    24    25 1   
    46    24    28 ar  
    47    25    26 1   
    48    26    27 1   
    49    26    46 1   
    50    26    47 1   
    51    27    28 1   
    52    28    29 ar  
    53    29    48 1   
@<TRIPOS>SUBSTRUCTURE
     1 CIA         1 TEMP              0 ****  ****    0 ROOT
