@<TRIPOS>MOLECULE
CIB
   64    63     1     0     0
SMALL
bcc


@<TRIPOS>ATOM
      1 N1           0.4080     1.2080    -3.8310 ns         1 CIB      -0.560900
      2 CA1         -0.0900     0.1530    -2.9870 c3         1 CIB       0.046700
      3 C1          -0.4140     0.6820    -1.5830 c          1 CIB       0.652100
      4 O1          -0.0860     1.7930    -1.2080 o          1 CIB      -0.588100
      5 CB1          0.8190    -1.0860    -2.9100 c3         1 CIB      -0.078400
      6 CG1          1.2740    -1.6310    -4.2630 c3         1 CIB      -0.056700
      7 CD1          2.1630    -2.8510    -4.0400 c3         1 CIB      -0.088600
      8 CD2          0.0990    -1.9800    -5.1690 c3         1 CIB      -0.088600
      9 C10          1.6040     1.8130    -3.7010 c          1 CIB       0.680100
     10 C25          1.8140     3.0010    -4.6100 c3         1 CIB      -0.181100
     11 O28          2.4710     1.4430    -2.9240 o          1 CIB      -0.590100
     12 N2          -1.1030    -0.1870    -0.8200 ns         1 CIB      -0.560900
     13 CA2         -1.3680     0.0090     0.5810 c3         1 CIB       0.033700
     14 C2          -0.3740    -0.7960     1.4150 c          1 CIB       0.655100
     15 O2           0.0820    -1.8570     1.0230 o          1 CIB      -0.602100
     16 CB2         -2.7910    -0.4300     0.9440 c3         1 CIB      -0.084400
     17 CG2         -3.8930     0.2850     0.1610 c3         1 CIB      -0.056700
     18 CD3         -5.2530    -0.2460     0.6020 c3         1 CIB      -0.091600
     19 CD4         -3.8310     1.8010     0.3230 c3         1 CIB      -0.091600
     20 N3          -0.0730    -0.2590     2.6100 ns         1 CIB      -0.552900
     21 CA3          0.6590    -0.9800     3.6130 c3         1 CIB      -0.011300
     22 C3          -0.1820    -2.0580     4.2590 c          1 CIB       0.558900
     23 O3          -1.3430    -2.2560     4.0180 o          1 CIB      -0.505100
     24 CB3          1.2120    -0.0450     4.6900 c3         1 CIB      -0.080400
     25 CG3          2.2180     0.9630     4.1460 c3         1 CIB      -0.077400
     26 CE3          3.8720     2.7980     4.7070 c3         1 CIB      -0.089100
     27 C19          2.8810     1.7770     5.2490 c3         1 CIB      -0.075400
     28 HN1         -0.2600     1.6300    -4.4540 hn         1 CIB       0.311500
     29 HA1         -1.0370    -0.1580    -3.4370 h1         1 CIB       0.055700
     30 HB11         1.6900    -0.8660    -2.2920 hc         1 CIB       0.064200
     31 HB12         0.2670    -1.8770    -2.3930 hc         1 CIB       0.064200
     32 HG1          1.8770    -0.8670    -4.7640 hc         1 CIB       0.056700
     33 HD11         2.5420    -3.2420    -4.9850 hc         1 CIB       0.032033
     34 HD12         3.0230    -2.6070    -3.4130 hc         1 CIB       0.032033
     35 HD13         1.6100    -3.6530    -3.5460 hc         1 CIB       0.032033
     36 HD21        -0.5710    -2.6960    -4.6860 hc         1 CIB       0.032033
     37 HD22        -0.4910    -1.1010    -5.4380 hc         1 CIB       0.032033
     38 HD23         0.4450    -2.4300    -6.1010 hc         1 CIB       0.032033
     39 H251         2.7850     2.9220    -5.0970 hc         1 CIB       0.058367
     40 H252         1.0480     3.1090    -5.3760 hc         1 CIB       0.058367
     41 H253         1.8240     3.9120    -4.0100 hc         1 CIB       0.058367
     42 HN2         -1.3140    -1.0980    -1.1970 hn         1 CIB       0.323500
     43 HA2         -1.2520     1.0710     0.7990 h1         1 CIB       0.090700
     44 HB21        -2.8810    -1.5100     0.7880 hc         1 CIB       0.057200
     45 HB22        -2.9370    -0.2630     2.0150 hc         1 CIB       0.057200
     46 HG2         -3.7640     0.0500    -0.9000 hc         1 CIB       0.046700
     47 HD31        -6.0600     0.2190     0.0330 hc         1 CIB       0.035367
     48 HD32        -5.3270    -1.3260     0.4620 hc         1 CIB       0.035367
     49 HD33        -5.4290    -0.0350     1.6590 hc         1 CIB       0.035367
     50 HD41        -3.9110     2.0850     1.3760 hc         1 CIB       0.035367
     51 HD42        -2.9030     2.2240    -0.0660 hc         1 CIB       0.035367
     52 HD43        -4.6530     2.2790    -0.2110 hc         1 CIB       0.035367
     53 HN3         -0.5280     0.5980     2.8860 hn         1 CIB       0.320500
     54 HA3          1.5100    -1.4920     3.1490 h1         1 CIB       0.095700
     55 H3           0.3660    -2.6700     4.9980 h4         1 CIB      -0.009800
     56 HB31         1.6950    -0.6600     5.4540 hc         1 CIB       0.047700
     57 HB32         0.3870     0.4730     5.1870 hc         1 CIB       0.047700
     58 HG31         1.7280     1.6420     3.4420 hc         1 CIB       0.049700
     59 HG32         2.9850     0.4310     3.5730 hc         1 CIB       0.049700
     60 HE31         4.3520     3.3550     5.5120 hc         1 CIB       0.035033
     61 HE32         4.6580     2.3140     4.1240 hc         1 CIB       0.035033
     62 HE33         3.3770     3.5200     4.0540 hc         1 CIB       0.035033
     63 H191         3.3930     1.0990     5.9390 hc         1 CIB       0.035700
     64 H192         2.1140     2.2880     5.8380 hc         1 CIB       0.035700
@<TRIPOS>BOND
     1     1     2 1   
     2     1     9 1   
     3     1    28 1   
     4     2     3 1   
     5     2     5 1   
     6     2    29 1   
     7     3     4 2   
     8     3    12 1   
     9     5     6 1   
    10     5    30 1   
    11     5    31 1   
    12     6     7 1   
    13     6     8 1   
    14     6    32 1   
    15     7    33 1   
    16     7    34 1   
    17     7    35 1   
    18     8    36 1   
    19     8    37 1   
    20     8    38 1   
    21     9    10 1   
    22     9    11 2   
    23    10    39 1   
    24    10    40 1   
    25    10    41 1   
    26    12    13 1   
    27    12    42 1   
    28    13    14 1   
    29    13    16 1   
    30    13    43 1   
    31    14    15 2   
    32    14    20 1   
    33    16    17 1   
    34    16    44 1   
    35    16    45 1   
    36    17    18 1   
    37    17    19 1   
    38    17    46 1   
    39    18    47 1   
    40    18    48 1   
    41    18    49 1   
    42    19    50 1   
    43    19    51 1   
    44    19    52 1   
    45    20    21 1   
    46    20    53 1   
    47    21    22 1   
    48    21    24 1   
    49    21    54 1   
    50    22    23 2   
    51    22    55 1   
    52    24    25 1   
    53    24    56 1   
    54    24    57 1   
    55    25    27 1   
    56    25    58 1   
    57    25    59 1   
    58    26    27 1   
    59    26    60 1   
    60    26    61 1   
    61    26    62 1   
    62    27    63 1   
    63    27    64 1   
@<TRIPOS>SUBSTRUCTURE
     1 CIB         1 TEMP              0 ****  ****    0 ROOT
