@<TRIPOS>MOLECULE
CIB
   64    63     1     0     0
SMALL
No Charge or Current Charge


@<TRIPOS>ATOM
      1 N1           0.0780     1.3680    -3.7620 ns         1 CIB      -0.493900
      2 CA1         -0.1390     0.2430    -2.8190 c3         1 CIB       0.046700
      3 C1          -0.7610     0.7380    -1.4690 c          1 CIB       0.585100
      4 O1          -1.0970     1.8980    -1.2670 o          1 CIB      -0.588100
      5 CB1          1.1170    -0.6660    -2.6320 c3         1 CIB      -0.078400
      6 CG1          1.8200    -1.1270    -3.9410 c3         1 CIB      -0.056700
      7 CD1          3.1030    -1.9280    -3.6250 c3         1 CIB      -0.088600
      8 CD2          0.8820    -1.9380    -4.8670 c3         1 CIB      -0.088600
      9 C10          1.0370     2.3530    -3.6370 c          1 CIB       0.613100
     10 C25          1.0290     3.3850    -4.7570 c3         1 CIB      -0.181100
     11 O28          1.8320     2.4010    -2.7110 o          1 CIB      -0.590100
     12 N2          -0.9130    -0.2340    -0.5000 ns         1 CIB      -0.493900
     13 CA2         -1.4650    -0.0200     0.8590 c3         1 CIB       0.033700
     14 C2          -0.5800    -0.7510     1.9090 c          1 CIB       0.588100
     15 O2           0.2350    -1.6170     1.6100 o          1 CIB      -0.602100
     16 CB2         -2.9410    -0.5030     0.9420 c3         1 CIB      -0.084400
     17 CG2         -3.9670     0.2880     0.0820 c3         1 CIB      -0.056700
     18 CD3         -5.3350    -0.4320     0.0550 c3         1 CIB      -0.091600
     19 CD4         -4.1350     1.7520     0.5550 c3         1 CIB      -0.091600
     20 N3          -0.7730    -0.3500     3.2160 ns         1 CIB      -0.485900
     21 CA3         -0.0290    -0.8690     4.3910 c3         1 CIB      -0.011300
     22 C3          -0.9760    -1.0550     5.6050 c          1 CIB       0.558900
     23 O3          -2.1370    -0.6570     5.6400 o          1 CIB      -0.505100
     24 CB3          1.1830     0.0270     4.7590 c3         1 CIB      -0.080400
     25 CG3          2.2490     0.1560     3.6460 c3         1 CIB      -0.077400
     26 CE3          4.5340     1.1250     2.9670 c3         1 CIB      -0.089100
     27 C19          3.4750     0.9900     4.0780 c3         1 CIB      -0.075400
     28 HN1         -0.5340     1.4430    -4.5660 hn         1 CIB       0.311500
     29 HA1         -0.9190    -0.3880    -3.2660 h1         1 CIB       0.055700
     30 HB11         1.8460    -0.1360    -2.0070 hc         1 CIB       0.064200
     31 HB12         0.8330    -1.5620    -2.0660 hc         1 CIB       0.064200
     32 HG1          2.1360    -0.2340    -4.4940 hc         1 CIB       0.056700
     33 HD11         3.6260    -2.2050    -4.5480 hc         1 CIB       0.032033
     34 HD12         3.7930    -1.3310    -3.0150 hc         1 CIB       0.032033
     35 HD13         2.8660    -2.8470    -3.0750 hc         1 CIB       0.032033
     36 HD21         0.4970    -2.8270    -4.3520 hc         1 CIB       0.032033
     37 HD22         0.0300    -1.3330    -5.1960 hc         1 CIB       0.032033
     38 HD23         1.4180    -2.2690    -5.7650 hc         1 CIB       0.032033
     39 H251         1.8020     4.1510    -4.6310 hc         1 CIB       0.058367
     40 H252         1.1250     2.8680    -5.7190 hc         1 CIB       0.058367
     41 H253         0.0290     3.8260    -4.8280 hc         1 CIB       0.058367
     42 HN2         -0.5830    -1.1640    -0.7300 hn         1 CIB       0.323500
     43 HA2         -1.4130     1.0470     1.1090 h1         1 CIB       0.090700
     44 HB21        -2.9690    -1.5610     0.6490 hc         1 CIB       0.057200
     45 HB22        -3.2730    -0.4710     1.9870 hc         1 CIB       0.057200
     46 HG2         -3.6020     0.3120    -0.9530 hc         1 CIB       0.046700
     47 HD31        -6.0430     0.1050    -0.5870 hc         1 CIB       0.035367
     48 HD32        -5.2300    -1.4500    -0.3380 hc         1 CIB       0.035367
     49 HD33        -5.7640    -0.4940     1.0620 hc         1 CIB       0.035367
     50 HD41        -4.4850     1.7890     1.5930 hc         1 CIB       0.035367
     51 HD42        -3.1920     2.3050     0.4910 hc         1 CIB       0.035367
     52 HD43        -4.8680     2.2770    -0.0700 hc         1 CIB       0.035367
     53 HN3         -1.4860     0.3540     3.3760 hn         1 CIB       0.320500
     54 HA3          0.3480    -1.8740     4.1570 h1         1 CIB       0.095700
     55 H3          -0.5320    -1.5910     6.4730 h4         1 CIB      -0.009800
     56 HB31         1.6630    -0.3840     5.6570 hc         1 CIB       0.047700
     57 HB32         0.8210     1.0280     5.0280 hc         1 CIB       0.047700
     58 HG31         1.8010     0.6240     2.7610 hc         1 CIB       0.049700
     59 HG32         2.5820    -0.8450     3.3470 hc         1 CIB       0.049700
     60 HE31         5.3830     1.7230     3.3180 hc         1 CIB       0.035033
     61 HE32         4.9100     0.1390     2.6670 hc         1 CIB       0.035033
     62 HE33         4.1100     1.6170     2.0840 hc         1 CIB       0.035033
     63 H191         3.9390     0.5270     4.9580 hc         1 CIB       0.035700
     64 H192         3.1460     1.9920     4.3790 hc         1 CIB       0.035700
@<TRIPOS>BOND
     1     1     2 1   
     2     1     9 1   
     3     1    28 1   
     4     2     3 1   
     5     2     5 1   
     6     2    29 1   
     7     3     4 2   
     8     3    12 1   
     9     5     6 1   
    10     5    30 1   
    11     5    31 1   
    12     6     7 1   
    13     6     8 1   
    14     6    32 1   
    15     7    33 1   
    16     7    34 1   
    17     7    35 1   
    18     8    36 1   
    19     8    37 1   
    20     8    38 1   
    21     9    10 1   
    22     9    11 2   
    23    10    39 1   
    24    10    40 1   
    25    10    41 1   
    26    12    13 1   
    27    12    42 1   
    28    13    14 1   
    29    13    16 1   
    30    13    43 1   
    31    14    15 2   
    32    14    20 1   
    33    16    17 1   
    34    16    44 1   
    35    16    45 1   
    36    17    18 1   
    37    17    19 1   
    38    17    46 1   
    39    18    47 1   
    40    18    48 1   
    41    18    49 1   
    42    19    50 1   
    43    19    51 1   
    44    19    52 1   
    45    20    21 1   
    46    20    53 1   
    47    21    22 1   
    48    21    24 1   
    49    21    54 1   
    50    22    23 2   
    51    22    55 1   
    52    24    25 1   
    53    24    56 1   
    54    24    57 1   
    55    25    27 1   
    56    25    58 1   
    57    25    59 1   
    58    26    27 1   
    59    26    60 1   
    60    26    61 1   
    61    26    62 1   
    62    27    63 1   
    63    27    64 1   
@<TRIPOS>SUBSTRUCTURE
     1 CIB         1 TEMP              0 ****  ****    0 ROOT
