@<TRIPOS>MOLECULE
CID
   39    42     1     0     0
SMALL
bcc


@<TRIPOS>ATOM
      1 C20          0.7920     0.4270    -3.6130 ca         1 CID      -0.090300
      2 C18          1.6110     0.3180    -2.3630 c3         1 CID       0.191700
      3 O16          0.6980     0.2520    -1.2750 os         1 CID      -0.183300
      4 N11          1.3870     0.2460    -0.0990 n2         1 CID      -0.462200
      5 C10          0.6200     0.1130     0.9090 ce         1 CID       0.467800
      6 C21          0.3650    -0.7210    -4.2680 ca         1 CID      -0.092000
      7 C23         -0.4140    -0.6310    -5.4110 ca         1 CID       0.020400
      8 CL26        -0.9230    -2.0730    -6.2020 cl         1 CID      -0.076400
      9 C25         -0.7760     0.6160    -5.9080 ca         1 CID       0.035400
     10 CL27        -1.7350     0.7490    -7.3310 cl         1 CID      -0.076400
     11 C24         -0.3580     1.7660    -5.2560 ca         1 CID      -0.119000
     12 C22          0.4180     1.6690    -4.1130 ca         1 CID      -0.096000
     13 N5           2.5170     0.0250     2.5140 na         1 CID      -0.100900
     14 C9           2.6320    -0.1010     3.8610 cc         1 CID       0.439900
     15 N4           1.4810    -0.1320     4.4760 nd         1 CID      -0.639000
     16 C1           0.5570    -0.0150     3.4780 cd         1 CID       0.424800
     17 C2           1.1680     0.0720     2.2350 cc         1 CID      -0.262500
     18 C3          -0.8710    -0.0060     3.7940 ca         1 CID      -0.120500
     19 C8          -1.7810     0.7750     3.0810 ca         1 CID      -0.097500
     20 C13         -3.1300     0.7660     3.3960 ca         1 CID      -0.126500
     21 C17         -3.5750    -0.0210     4.4460 ca         1 CID       0.034400
     22 CL19        -5.2580    -0.0360     4.8490 cl         1 CID      -0.109400
     23 C12         -2.6890    -0.7910     5.1850 ca         1 CID      -0.126500
     24 C7          -1.3450    -0.7780     4.8570 ca         1 CID      -0.097500
     25 C11          3.7170     0.0500     1.8300 cc         1 CID      -0.065300
     26 S14          4.2860    -0.1810     4.3380 ss         1 CID      -0.094300
     27 C15          4.7620    -0.0510     2.6670 cd         1 CID      -0.128100
     28 H181         2.2670     1.1860    -2.2560 h1         1 CID       0.047700
     29 H182         2.2380    -0.5790    -2.3880 h1         1 CID       0.047700
     30 H10         -0.4590     0.0100     0.8080 h4         1 CID       0.028800
     31 H21          0.6430    -1.6970    -3.8910 ha         1 CID       0.153000
     32 H24         -0.6370     2.7350    -5.6450 ha         1 CID       0.152000
     33 H22          0.7380     2.5750    -3.6150 ha         1 CID       0.143000
     34 H8          -1.4400     1.4270     2.2880 ha         1 CID       0.144500
     35 H13         -3.8210     1.3830     2.8380 ha         1 CID       0.148500
     36 H12         -3.0420    -1.3980     6.0080 ha         1 CID       0.148500
     37 H7          -0.6550    -1.3840     5.4290 ha         1 CID       0.144500
     38 H11          3.7390     0.1440     0.7580 h4         1 CID       0.204000
     39 H15          5.8050    -0.0540     2.3990 h4         1 CID       0.187000
@<TRIPOS>BOND
     1     1     2 1   
     2     1     6 ar  
     3     1    12 ar  
     4     2     3 1   
     5     2    28 1   
     6     2    29 1   
     7     3     4 1   
     8     4     5 2   
     9     5    17 1   
    10     5    30 1   
    11     6     7 ar  
    12     6    31 1   
    13     7     8 1   
    14     7     9 ar  
    15     9    10 1   
    16     9    11 ar  
    17    11    12 ar  
    18    11    32 1   
    19    12    33 1   
    20    13    14 1   
    21    13    17 1   
    22    13    25 1   
    23    14    15 2   
    24    14    26 1   
    25    15    16 1   
    26    16    17 2   
    27    16    18 1   
    28    18    19 ar  
    29    18    24 ar  
    30    19    20 ar  
    31    19    34 1   
    32    20    21 ar  
    33    20    35 1   
    34    21    22 1   
    35    21    23 ar  
    36    23    24 ar  
    37    23    36 1   
    38    24    37 1   
    39    25    27 2   
    40    25    38 1   
    41    26    27 1   
    42    27    39 1   
@<TRIPOS>SUBSTRUCTURE
     1 CID         1 TEMP              0 ****  ****    0 ROOT
