@<TRIPOS>MOLECULE
CID
   39    42     1     0     0
SMALL
No Charge or Current Charge


@<TRIPOS>ATOM
      1 C20          0.7000     0.7440    -3.6840 ca         1 CID      -0.090300
      2 C18          1.4790     0.9040    -2.3840 c3         1 CID       0.214900
      3 O16          0.6900     0.3570    -1.3110 os         1 CID      -0.305000
      4 N11          1.3770     0.4790    -0.0840 n2         1 CID      -0.363700
      5 C10          0.7230     0.0070     0.9330 ce         1 CID       0.467800
      6 C21          0.7630    -0.4650    -4.4040 ca         1 CID      -0.074000
      7 C23          0.0440    -0.6190    -5.6020 ca         1 CID       0.112000
      8 Cl26         0.1500    -2.1490    -6.4740 cl         1 CID      -0.168000
      9 C25         -0.7460     0.4430    -6.0890 ca         1 CID       0.127000
     10 Cl27        -1.6610     0.2860    -7.5890 cl         1 CID      -0.168000
     11 C24         -0.8130     1.6500    -5.3720 ca         1 CID      -0.101000
     12 C22         -0.0930     1.8010    -4.1730 ca         1 CID      -0.078000
     13 N5           2.6040     0.1280     2.6390 na         1 CID       0.000500
     14 C9           2.7310     0.0090     3.9690 cc         1 CID       0.439900
     15 N4           1.5700    -0.1280     4.5740 nd         1 CID      -0.639000
     16 C1           0.6440    -0.0470     3.5300 cd         1 CID       0.359500
     17 C2           1.2760     0.0100     2.2870 cc         1 CID      -0.247900
     18 C3          -0.8110    -0.0020     3.8380 ca         1 CID      -0.120500
     19 C8          -1.7640     0.5070     2.9210 ca         1 CID      -0.079500
     20 C13         -3.1290     0.5650     3.2560 ca         1 CID      -0.108500
     21 C17         -3.5640     0.1360     4.5170 ca         1 CID       0.126000
     22 Cl19        -5.2710     0.2130     4.9330 cl         1 CID      -0.201000
     23 C12         -2.6340    -0.3350     5.4520 ca         1 CID      -0.108500
     24 C7          -1.2690    -0.3920     5.1210 ca         1 CID      -0.079500
     25 C11          3.6270    -0.4580     1.8950 cc         1 CID      -0.098000
     26 S14          4.2670    -0.5960     4.4890 ss         1 CID       0.050600
     27 C15          4.6550    -0.8140     2.7650 cd         1 CID      -0.255000
     28 H181         1.6900     1.9670    -2.2080 h1         1 CID       0.047700
     29 H182         2.4390     0.3780    -2.4670 h1         1 CID       0.047700
     30 H10         -0.2590    -0.4570     0.8170 h4         1 CID       0.028800
     31 H21          1.3680    -1.2890    -4.0330 ha         1 CID       0.135000
     32 H24         -1.4230     2.4690    -5.7460 ha         1 CID       0.134000
     33 H22         -0.1540     2.7390    -3.6240 ha         1 CID       0.125000
     34 H8          -1.4650     0.9050     1.9580 ha         1 CID       0.126500
     35 H13         -3.8480     0.9570     2.5410 ha         1 CID       0.130500
     36 H12         -2.9690    -0.6540     6.4360 ha         1 CID       0.130500
     37 H7          -0.5700    -0.7630     5.8680 ha         1 CID       0.126500
     38 H11          3.5730    -0.5680     0.8180 h4         1 CID       0.186000
     39 H15          5.6050    -1.2640     2.4970 h4         1 CID       0.169000
@<TRIPOS>BOND
     1     1     2 1   
     2     1     6 ar  
     3     1    12 ar  
     4     2     3 1   
     5     2    28 1   
     6     2    29 1   
     7     3     4 1   
     8     4     5 2   
     9     5    17 1   
    10     5    30 1   
    11     6     7 ar  
    12     6    31 1   
    13     7     8 1   
    14     7     9 ar  
    15     9    10 1   
    16     9    11 ar  
    17    11    12 ar  
    18    11    32 1   
    19    12    33 1   
    20    13    14 1   
    21    13    17 1   
    22    13    25 1   
    23    14    15 2   
    24    14    26 1   
    25    15    16 1   
    26    16    17 2   
    27    16    18 1   
    28    18    19 ar  
    29    18    24 ar  
    30    19    20 ar  
    31    19    34 1   
    32    20    21 ar  
    33    20    35 1   
    34    21    22 1   
    35    21    23 ar  
    36    23    24 ar  
    37    23    36 1   
    38    24    37 1   
    39    25    27 2   
    40    25    38 1   
    41    26    27 1   
    42    27    39 1   
@<TRIPOS>SUBSTRUCTURE
     1 CID         1 TEMP              0 ****  ****    0 ROOT
