@<TRIPOS>MOLECULE
CIE
   42    43     1     0     0
SMALL
No Charge or Current Charge


@<TRIPOS>ATOM
      1 C1          -0.2600     0.8600     2.9920 ca         1 CIE      -0.039600
      2 C2          -1.0400    -0.2600     2.5660 ca         1 CIE      -0.252500
      3 C3          -2.4510    -0.1700     2.5740 ca         1 CIE       0.002000
      4 C4          -3.0890     1.0010     3.0130 ca         1 CIE      -0.109000
      5 C5          -2.3300     2.0940     3.4510 ca         1 CIE      -0.062000
      6 C6          -0.9280     2.0220     3.4400 ca         1 CIE      -0.091000
      7 C7           1.2570     0.8740     2.9740 c          1 CIE       0.618700
      8 O7           1.9190     0.5680     1.9900 o          1 CIE      -0.508000
      9 O8           1.7960     1.4660     4.0880 os         1 CIE      -0.424100
     10 C9           3.2240     1.6110     4.1540 c3         1 CIE       0.167600
     11 C10          3.5570     2.2850     5.4940 c3         1 CIE      -0.098100
     12 S11         -0.2820    -1.8230     2.0410 sy         1 CIE       1.194300
     13 OBA          0.8600    -2.1150     2.9140 o          1 CIE      -0.521500
     14 OBB         -1.3390    -2.8170     1.8200 o          1 CIE      -0.521500
     15 N12          0.3840    -1.5010     0.5460 ns         1 CIE      -0.587300
     16 C13         -0.2710    -1.0690    -0.5530 c          1 CIE       0.694100
     17 O13         -1.4850    -0.9870    -0.6250 o          1 CIE      -0.536100
     18 N14          0.5920    -0.7450    -1.5710 ns         1 CIE      -0.315900
     19 N1           1.2810    -0.5400    -3.7660 nb         1 CIE      -0.330000
     20 C11          0.3300    -0.2520    -2.8610 ca         1 CIE       0.319900
     21 N3          -0.7990     0.4570    -3.0550 nb         1 CIE      -0.201000
     22 C12         -0.9900     0.9140    -4.3040 ca         1 CIE       0.256000
     23 Cl4         -2.4510     1.8410    -4.6080 cl         1 CIE      -0.140000
     24 C14         -0.0670     0.6690    -5.3310 ca         1 CIE      -0.270000
     25 C15          1.0770    -0.0750    -5.0160 ca         1 CIE       0.395300
     26 O2           1.9850    -0.3150    -6.0210 os         1 CIE      -0.446300
     27 C8           3.1860    -1.0730    -5.7740 c3         1 CIE       0.158900
     28 H3          -3.0670    -1.0060     2.2460 ha         1 CIE       0.157000
     29 H4          -4.1750     1.0580     3.0170 ha         1 CIE       0.127000
     30 H5          -2.8260     2.9990     3.7930 ha         1 CIE       0.122000
     31 H6          -0.3560     2.8870     3.7700 ha         1 CIE       0.128000
     32 H91          3.5940     2.2350     3.3290 h1         1 CIE       0.053200
     33 H92          3.7200     0.6330     4.1010 h1         1 CIE       0.053200
     34 H101         4.6400     2.4180     5.5930 hc         1 CIE       0.049700
     35 H102         3.0810     3.2700     5.5600 hc         1 CIE       0.049700
     36 H103         3.2080     1.6700     6.3320 hc         1 CIE       0.049700
     37 H12          1.3860    -1.4490     0.5930 hn         1 CIE       0.356500
     38 H14          1.5700    -0.9170    -1.3870 hn         1 CIE       0.179000
     39 H2          -0.2300     1.0430    -6.3360 ha         1 CIE       0.163000
     40 H8'1         3.7820    -1.1580    -6.6920 h1         1 CIE       0.053367
     41 H8'2         3.8070    -0.5870    -5.0110 h1         1 CIE       0.053367
     42 H8'3         2.9450    -2.0880    -5.4310 h1         1 CIE       0.053367
@<TRIPOS>BOND
     1     1     2 ar  
     2     1     6 ar  
     3     1     7 1   
     4     2     3 ar  
     5     2    12 1   
     6     3     4 ar  
     7     3    28 1   
     8     4     5 ar  
     9     4    29 1   
    10     5     6 ar  
    11     5    30 1   
    12     6    31 1   
    13     7     8 2   
    14     7     9 1   
    15     9    10 1   
    16    10    11 1   
    17    10    32 1   
    18    10    33 1   
    19    11    34 1   
    20    11    35 1   
    21    11    36 1   
    22    12    13 2   
    23    12    14 2   
    24    12    15 1   
    25    15    16 1   
    26    15    37 1   
    27    16    17 2   
    28    16    18 1   
    29    18    20 1   
    30    18    38 1   
    31    19    20 ar  
    32    19    25 ar  
    33    20    21 ar  
    34    21    22 ar  
    35    22    23 1   
    36    22    24 ar  
    37    24    25 ar  
    38    24    39 1   
    39    25    26 1   
    40    26    27 1   
    41    27    40 1   
    42    27    41 1   
    43    27    42 1   
@<TRIPOS>SUBSTRUCTURE
     1 CIE         1 TEMP              0 ****  ****    0 ROOT
