@<TRIPOS>MOLECULE
CIE
   42    43     1     0     0
SMALL
abcg2


@<TRIPOS>ATOM
      1 C1          -0.1650     1.0310     2.9580 ca         1 CIE      -0.039600
      2 C2          -0.9540    -0.0110     2.4630 ca         1 CIE      -0.252500
      3 C3          -2.3330     0.1050     2.3920 ca         1 CIE       0.002000
      4 C4          -2.9430     1.2820     2.7990 ca         1 CIE      -0.109000
      5 C5          -2.1760     2.3210     3.2970 ca         1 CIE      -0.062000
      6 C6          -0.7960     2.1920     3.3840 ca         1 CIE      -0.091000
      7 C7           1.3300     1.0010     2.9630 c          1 CIE       0.618700
      8 O7           1.9940     0.7430     1.9910 o          1 CIE      -0.508000
      9 O8           1.8120     1.3560     4.1330 os         1 CIE      -0.424100
     10 C9           3.2430     1.4640     4.2730 c3         1 CIE       0.167600
     11 C10          3.5370     1.8520     5.7000 c3         1 CIE      -0.098100
     12 S11         -0.2380    -1.5830     2.0530 sy         1 CIE       1.194300
     13 OBA          0.8700    -1.8340     2.9530 o          1 CIE      -0.521500
     14 OBB         -1.3010    -2.5540     1.9300 o          1 CIE      -0.521500
     15 N12          0.4750    -1.3910     0.5560 ns         1 CIE      -0.587300
     16 C13         -0.2610    -1.0700    -0.5750 c          1 CIE       0.694100
     17 O13         -1.4590    -0.9510    -0.5520 o          1 CIE      -0.536100
     18 N14          0.5510    -0.9250    -1.6710 ns         1 CIE      -0.315900
     19 N1           1.2120    -0.5400    -3.8000 nb         1 CIE      -0.330000
     20 C11          0.2000    -0.5170    -2.9390 ca         1 CIE       0.319900
     21 N3          -1.0380    -0.1420    -3.1940 nb         1 CIE      -0.201000
     22 C12         -1.2630     0.2390    -4.4380 ca         1 CIE       0.256000
     23 CL4         -2.8780     0.7300    -4.7930 cl         1 CIE      -0.140000
     24 C14         -0.3210     0.2680    -5.4340 ca         1 CIE      -0.270000
     25 C15          0.9560    -0.1500    -5.0310 ca         1 CIE       0.395300
     26 O2           1.9130    -0.1430    -5.9330 os         1 CIE      -0.446300
     27 C8           3.2240    -0.5540    -5.5460 c3         1 CIE       0.158900
     28 H3          -2.9360    -0.7160     2.0310 ha         1 CIE       0.157000
     29 H4          -4.0180     1.3760     2.7360 ha         1 CIE       0.127000
     30 H5          -2.6470     3.2370     3.6260 ha         1 CIE       0.122000
     31 H6          -0.2100     3.0130     3.7750 ha         1 CIE       0.128000
     32 H91          3.6160     2.2160     3.5750 h1         1 CIE       0.053200
     33 H92          3.7030     0.5080     4.0200 h1         1 CIE       0.053200
     34 H101         4.6150     1.9390     5.8280 hc         1 CIE       0.049700
     35 H102         3.0900     2.8130     5.9550 hc         1 CIE       0.049700
     36 H103         3.1770     1.1010     6.4030 hc         1 CIE       0.049700
     37 H12          1.4760    -1.2350     0.5860 hn         1 CIE       0.356500
     38 H14          1.5290    -1.1630    -1.5780 hn         1 CIE       0.179000
     39 H2          -0.5340     0.5840    -6.4440 ha         1 CIE       0.163000
     40 H8'1         3.8370    -0.4530    -6.4370 h1         1 CIE       0.053367
     41 H8'2         3.6220     0.0810    -4.7550 h1         1 CIE       0.053367
     42 H8'3         3.2330    -1.5910    -5.2110 h1         1 CIE       0.053367
@<TRIPOS>BOND
     1     1     2 ar  
     2     1     6 ar  
     3     1     7 1   
     4     2     3 ar  
     5     2    12 1   
     6     3     4 ar  
     7     3    28 1   
     8     4     5 ar  
     9     4    29 1   
    10     5     6 ar  
    11     5    30 1   
    12     6    31 1   
    13     7     8 2   
    14     7     9 1   
    15     9    10 1   
    16    10    11 1   
    17    10    32 1   
    18    10    33 1   
    19    11    34 1   
    20    11    35 1   
    21    11    36 1   
    22    12    13 2   
    23    12    14 2   
    24    12    15 1   
    25    15    16 1   
    26    15    37 1   
    27    16    17 2   
    28    16    18 1   
    29    18    20 1   
    30    18    38 1   
    31    19    20 ar  
    32    19    25 ar  
    33    20    21 ar  
    34    21    22 ar  
    35    22    23 1   
    36    22    24 ar  
    37    24    25 ar  
    38    24    39 1   
    39    25    26 1   
    40    26    27 1   
    41    27    40 1   
    42    27    41 1   
    43    27    42 1   
@<TRIPOS>SUBSTRUCTURE
     1 CIE         1 TEMP              0 ****  ****    0 ROOT
