@<TRIPOS>MOLECULE
CIF
   76    80     1     0     0
SMALL
No Charge or Current Charge


@<TRIPOS>ATOM
      1 C16         -4.3480   -64.3370     3.0200 c          1 CIF       0.624100
      2 C7          -3.0440   -64.7480    -0.1030 c3         1 CIF      -0.087100
      3 C14         -3.2340   -62.4630    -1.2230 c          1 CIF       0.587100
      4 C15         -3.4600   -60.3530    -2.3770 c3         1 CIF       0.150900
      5 C17         -2.7310   -65.7010     4.4800 ca         1 CIF      -0.029000
      6 C18         -3.2670   -66.9930     4.2980 ca         1 CIF      -0.106000
      7 C19         -2.7160   -68.0870     4.9820 ca         1 CIF      -0.094000
      8 C20         -1.6270   -67.9070     5.8490 ca         1 CIF      -0.079000
      9 C21         -1.0650   -66.6260     6.0450 ca         1 CIF      -0.124600
     10 C22         -1.6330   -65.5290     5.3460 ca         1 CIF      -0.145000
     11 C23          0.1180   -66.4660     6.9890 c          1 CIF       0.620700
     12 C26          1.6710   -64.6210     7.8960 ca         1 CIF      -0.024000
     13 C27          1.9590   -63.2570     7.7180 ca         1 CIF      -0.154000
     14 C28          2.9880   -62.6200     8.4430 ca         1 CIF      -0.033300
     15 C29          3.7610   -63.3780     9.3630 ca         1 CIF       0.270000
     16 C2          -4.4760   -62.9180     2.4680 c6         1 CIF      -0.262700
     17 C30          3.4540   -64.7350     9.5590 ca         1 CIF      -0.101000
     18 C31          2.4240   -65.3580     8.8330 ca         1 CIF      -0.109000
     19 C33          5.9630   -62.1450     9.7610 ca         1 CIF       0.391900
     20 C35          7.8200   -61.0180    10.4590 ca         1 CIF       0.150900
     21 C36          8.1980   -60.8310     9.1190 ca         1 CIF      -0.276000
     22 C37          7.3670   -61.3660     8.1030 cp         1 CIF       0.228500
     23 C39          3.1920   -61.1200     8.2320 c3         1 CIF      -0.047800
     24 C1          -5.9100   -62.5820     2.0790 c          1 CIF       0.601100
     25 C40          7.6610   -61.2350     6.6350 cp         1 CIF      -0.213500
     26 C41          8.9060   -60.7590     6.1490 ca         1 CIF      -0.051000
     27 C42          9.1100   -60.6640     4.7640 ca         1 CIF      -0.175000
     28 C43          8.0810   -61.0410     3.8900 ca         1 CIF       0.350900
     29 C45          6.6900   -61.5940     5.6590 ca         1 CIF       0.381900
     30 C6          -6.1970   -62.5480     0.5730 c6         1 CIF      -0.173400
     31 C5          -5.3170   -63.5610    -0.2100 c6         1 CIF      -0.061400
     32 C4          -3.7610   -63.3550    -0.0460 c6         1 CIF      -0.095000
     33 C3          -3.4590   -62.6240     1.3200 c6         1 CIF      -0.055400
     34 N2          -3.2300   -64.5460     3.8170 ns         1 CIF      -0.147000
     35 N25          0.6130   -65.1730     7.1220 ns         1 CIF      -0.150000
     36 N32          4.8110   -62.8310    10.1160 nu         1 CIF      -0.948900
     37 N34          6.6960   -61.6810    10.7850 nb         1 CIF      -0.243000
     38 N38          6.2450   -62.0250     8.4520 nb         1 CIF      -0.242000
     39 N44          6.8880   -61.5010     4.3220 nb         1 CIF      -0.673000
     40 O2          -5.1940   -65.1900     2.7870 o          1 CIF      -0.568100
     41 O           -3.8650   -61.2470    -1.3240 os         1 CIF      -0.450100
     42 O4          -6.7740   -62.3540     2.9140 o          1 CIF      -0.501100
     43 O24          0.5910   -67.4310     7.5800 o          1 CIF      -0.572100
     44 H1          -1.9570   -64.6460     0.0050 hc         1 CIF       0.051033
     45 H2          -3.3850   -65.4230     0.6890 hc         1 CIF       0.051033
     46 H3          -3.2330   -65.2540    -1.0580 hc         1 CIF       0.051033
     47 H4          -4.0450   -59.4260    -2.3360 h1         1 CIF       0.049700
     48 H5          -2.3990   -60.0890    -2.2810 h1         1 CIF       0.049700
     49 H6          -3.6180   -60.8110    -3.3620 h1         1 CIF       0.049700
     50 H7          -4.1020   -67.1730     3.6280 ha         1 CIF       0.151000
     51 H8          -3.1340   -69.0810     4.8390 ha         1 CIF       0.124000
     52 H9          -1.2190   -68.7730     6.3670 ha         1 CIF       0.139000
     53 H10         -1.2310   -64.5260     5.4670 ha         1 CIF       0.106000
     54 H11          1.3700   -62.6760     7.0110 ha         1 CIF       0.109000
     55 H12         -4.1810   -62.2720     3.3050 hc         1 CIF       0.088700
     56 H13          4.0300   -65.3210    10.2700 ha         1 CIF       0.120000
     57 H14          2.2310   -66.4100     9.0190 ha         1 CIF       0.144000
     58 H15          8.4210   -60.6290    11.2790 h4         1 CIF       0.022100
     59 H16          9.1030   -60.2800     8.8920 ha         1 CIF       0.134000
     60 H17          3.5790   -60.6260     9.1300 hc         1 CIF       0.047367
     61 H18          3.8890   -60.9280     7.4090 hc         1 CIF       0.047367
     62 H19          2.2470   -60.6240     7.9820 hc         1 CIF       0.047367
     63 H20          9.7110   -60.4750     6.8210 ha         1 CIF       0.119000
     64 H21         10.0540   -60.3030     4.3660 ha         1 CIF       0.125000
     65 H22          8.2160   -60.9760     2.8110 h4         1 CIF       0.020100
     66 H23          5.7100   -61.9690     5.9540 h4         1 CIF       0.042100
     67 H24         -5.9410   -61.5380     0.2300 hc         1 CIF       0.080200
     68 H25         -7.2720   -62.6850     0.3990 hc         1 CIF       0.080200
     69 H26         -5.5870   -63.5360    -1.2760 hc         1 CIF       0.062700
     70 H27         -5.5960   -64.5710     0.1230 hc         1 CIF       0.062700
     71 H28         -2.4340   -62.8480     1.6480 hc         1 CIF       0.057200
     72 H29         -3.4610   -61.5360     1.1620 hc         1 CIF       0.057200
     73 H30         -2.6500   -63.7260     3.9360 hn         1 CIF       0.150000
     74 H31          0.1260   -64.4890     6.5590 hn         1 CIF       0.152000
     75 H32          4.8400   -63.1500    11.0850 hn         1 CIF       0.515000
     76 O1          -2.3490   -62.8200    -1.9910 o          1 CIF      -0.474000
@<TRIPOS>BOND
     1     1    16 1   
     2     1    34 1   
     3     1    40 2   
     4     2    32 1   
     5     2    44 1   
     6     2    45 1   
     7     2    46 1   
     8     3    32 1   
     9     3    41 1   
    10     3    76 2   
    11     4    41 1   
    12     4    47 1   
    13     4    48 1   
    14     4    49 1   
    15     5     6 ar  
    16     5    10 ar  
    17     5    34 1   
    18     6     7 ar  
    19     6    50 1   
    20     7     8 ar  
    21     7    51 1   
    22     8     9 ar  
    23     8    52 1   
    24     9    10 ar  
    25     9    11 1   
    26    10    53 1   
    27    11    35 1   
    28    11    43 2   
    29    12    13 ar  
    30    12    18 ar  
    31    12    35 1   
    32    13    14 ar  
    33    13    54 1   
    34    14    15 ar  
    35    14    23 1   
    36    15    17 ar  
    37    15    36 1   
    38    16    24 1   
    39    16    33 1   
    40    16    55 1   
    41    17    18 ar  
    42    17    56 1   
    43    18    57 1   
    44    19    36 1   
    45    19    37 ar  
    46    19    38 ar  
    47    20    21 ar  
    48    20    37 ar  
    49    20    58 1   
    50    21    22 ar  
    51    21    59 1   
    52    22    25 1   
    53    22    38 ar  
    54    23    60 1   
    55    23    61 1   
    56    23    62 1   
    57    24    30 1   
    58    24    42 2   
    59    25    26 ar  
    60    25    29 ar  
    61    26    27 ar  
    62    26    63 1   
    63    27    28 ar  
    64    27    64 1   
    65    28    39 ar  
    66    28    65 1   
    67    29    39 ar  
    68    29    66 1   
    69    30    31 1   
    70    30    67 1   
    71    30    68 1   
    72    31    32 1   
    73    31    69 1   
    74    31    70 1   
    75    32    33 1   
    76    33    71 1   
    77    33    72 1   
    78    34    73 1   
    79    35    74 1   
    80    36    75 1   
@<TRIPOS>SUBSTRUCTURE
     1 CIF         1 TEMP              0 ****  ****    0 ROOT
