@<TRIPOS>MOLECULE
CIF
   76    80     1     0     0
SMALL
abcg2


@<TRIPOS>ATOM
      1 C16         -4.3570   -64.5370     2.9470 c          1 CIF       0.624100
      2 C7          -1.9540   -64.0740     0.7150 c3         1 CIF      -0.087100
      3 C14         -2.5010   -61.9680    -0.4650 c          1 CIF       0.587100
      4 C15         -3.0330   -60.0110    -1.6690 c3         1 CIF       0.150900
      5 C17         -2.8320   -65.6490     4.5640 ca         1 CIF      -0.029000
      6 C18         -3.3200   -66.9530     4.4940 ca         1 CIF      -0.106000
      7 C19         -2.6390   -67.9710     5.1490 ca         1 CIF      -0.094000
      8 C20         -1.4900   -67.7190     5.8770 ca         1 CIF      -0.079000
      9 C21         -1.0130   -66.4150     5.9710 ca         1 CIF      -0.124600
     10 C22         -1.6780   -65.3930     5.3060 ca         1 CIF      -0.145000
     11 C23          0.2430   -66.1840     6.7530 c          1 CIF       0.620700
     12 C26          1.4720   -64.4430     8.0050 ca         1 CIF      -0.024000
     13 C27          1.6900   -63.0690     7.9310 ca         1 CIF      -0.154000
     14 C28          2.7410   -62.4500     8.5960 ca         1 CIF      -0.033300
     15 C29          3.6140   -63.2510     9.3400 ca         1 CIF       0.270000
     16 C2          -4.6960   -63.1370     2.4540 c6         1 CIF      -0.262700
     17 C30          3.3920   -64.6190     9.4240 ca         1 CIF      -0.101000
     18 C31          2.3270   -65.2250     8.7760 ca         1 CIF      -0.109000
     19 C33          5.8030   -62.1570     9.4970 ca         1 CIF       0.391900
     20 C35          7.8070   -61.1730     9.7970 ca         1 CIF       0.150900
     21 C36          7.9960   -61.0810     8.4270 ca         1 CIF      -0.276000
     22 C37          6.9820   -61.6030     7.6310 cp         1 CIF       0.228500
     23 C39          2.9160   -60.9650     8.5050 c3         1 CIF      -0.047800
     24 C1          -5.9070   -63.2210     1.5360 c          1 CIF       0.601100
     25 C40          7.0460   -61.5930     6.1570 cp         1 CIF      -0.213500
     26 C41          8.2350   -61.3970     5.4600 ca         1 CIF      -0.051000
     27 C42          8.2180   -61.4050     4.0770 ca         1 CIF      -0.175000
     28 C43          7.0080   -61.6080     3.4300 ca         1 CIF       0.350900
     29 C45          5.8880   -61.7910     5.4020 ca         1 CIF       0.381900
     30 C6          -5.6150   -63.1920     0.0610 c6         1 CIF      -0.173400
     31 C5          -4.2420   -63.7580    -0.2760 c6         1 CIF      -0.061400
     32 C4          -3.0610   -63.0550     0.4460 c6         1 CIF      -0.095000
     33 C3          -3.5400   -62.4000     1.7640 c6         1 CIF      -0.055400
     34 N2          -3.4360   -64.5520     3.9420 ns         1 CIF      -0.147000
     35 N25          0.3580   -64.9590     7.3230 ns         1 CIF      -0.150000
     36 N32          4.6880   -62.6840    10.0580 nu         1 CIF      -0.948900
     37 N34          6.7300   -61.7020    10.3490 nb         1 CIF      -0.243000
     38 N38          5.8930   -62.1390     8.1720 nb         1 CIF      -0.242000
     39 N44          5.8630   -61.7970     4.0770 nb         1 CIF      -0.673000
     40 O2          -4.8840   -65.5300     2.4820 o          1 CIF      -0.568100
     41 O           -3.4190   -61.0660    -0.7880 os         1 CIF      -0.450100
     42 O4          -7.0270   -63.2670     1.9840 o          1 CIF      -0.501100
     43 O24          1.0790   -67.0620     6.8620 o          1 CIF      -0.572100
     44 H1          -1.0990   -63.6200     1.2140 hc         1 CIF       0.051033
     45 H2          -2.3170   -64.8820     1.3490 hc         1 CIF       0.051033
     46 H3          -1.6060   -64.5330    -0.2110 hc         1 CIF       0.051033
     47 H4          -3.9180   -59.3960    -1.8020 h1         1 CIF       0.049700
     48 H5          -2.2340   -59.4070    -1.2400 h1         1 CIF       0.049700
     49 H6          -2.7120   -60.3980    -2.6360 h1         1 CIF       0.049700
     50 H7          -4.2160   -67.1850     3.9430 ha         1 CIF       0.151000
     51 H8          -3.0250   -68.9800     5.0880 ha         1 CIF       0.124000
     52 H9          -0.9750   -68.5260     6.3790 ha         1 CIF       0.139000
     53 H10         -1.2930   -64.3790     5.3220 ha         1 CIF       0.106000
     54 H11          1.0120   -62.4580     7.3450 ha         1 CIF       0.109000
     55 H12         -4.9900   -62.5460     3.3290 hc         1 CIF       0.088700
     56 H13          4.0650   -65.2270    10.0160 ha         1 CIF       0.120000
     57 H14          2.1750   -66.2870     8.8830 ha         1 CIF       0.144000
     58 H15          8.5630   -60.7970    10.4780 h4         1 CIF       0.022100
     59 H16          8.8850   -60.6200     8.0250 ha         1 CIF       0.134000
     60 H17          3.1990   -60.5350     9.4650 hc         1 CIF       0.047367
     61 H18          3.7010   -60.7060     7.7920 hc         1 CIF       0.047367
     62 H19          1.9960   -60.4840     8.1750 hc         1 CIF       0.047367
     63 H20          9.1730   -61.2550     5.9820 ha         1 CIF       0.119000
     64 H21          9.1250   -61.2620     3.5070 ha         1 CIF       0.125000
     65 H22          6.9620   -61.6220     2.3470 h4         1 CIF       0.020100
     66 H23          4.9410   -61.9480     5.9050 h4         1 CIF       0.042100
     67 H24         -5.6970   -62.1490    -0.2630 hc         1 CIF       0.080200
     68 H25         -6.3990   -63.7370    -0.4670 hc         1 CIF       0.080200
     69 H26         -4.0960   -63.7410    -1.3580 hc         1 CIF       0.062700
     70 H27         -4.2270   -64.8130    -0.0000 hc         1 CIF       0.062700
     71 H28         -2.6950   -62.2880     2.4470 hc         1 CIF       0.057200
     72 H29         -3.9010   -61.3870     1.5810 hc         1 CIF       0.057200
     73 H30         -3.0790   -63.6510     4.2280 hn         1 CIF       0.150000
     74 H31         -0.3950   -64.3040     7.1790 hn         1 CIF       0.152000
     75 H32          4.7300   -62.8400    11.0530 hn         1 CIF       0.515000
     76 O1          -1.3680   -61.9230    -0.8740 o          1 CIF      -0.474000
@<TRIPOS>BOND
     1     1    16 1   
     2     1    34 1   
     3     1    40 2   
     4     2    32 1   
     5     2    44 1   
     6     2    45 1   
     7     2    46 1   
     8     3    32 1   
     9     3    41 1   
    10     3    76 2   
    11     4    41 1   
    12     4    47 1   
    13     4    48 1   
    14     4    49 1   
    15     5     6 ar  
    16     5    10 ar  
    17     5    34 1   
    18     6     7 ar  
    19     6    50 1   
    20     7     8 ar  
    21     7    51 1   
    22     8     9 ar  
    23     8    52 1   
    24     9    10 ar  
    25     9    11 1   
    26    10    53 1   
    27    11    35 1   
    28    11    43 2   
    29    12    13 ar  
    30    12    18 ar  
    31    12    35 1   
    32    13    14 ar  
    33    13    54 1   
    34    14    15 ar  
    35    14    23 1   
    36    15    17 ar  
    37    15    36 1   
    38    16    24 1   
    39    16    33 1   
    40    16    55 1   
    41    17    18 ar  
    42    17    56 1   
    43    18    57 1   
    44    19    36 1   
    45    19    37 ar  
    46    19    38 ar  
    47    20    21 ar  
    48    20    37 ar  
    49    20    58 1   
    50    21    22 ar  
    51    21    59 1   
    52    22    25 1   
    53    22    38 ar  
    54    23    60 1   
    55    23    61 1   
    56    23    62 1   
    57    24    30 1   
    58    24    42 2   
    59    25    26 ar  
    60    25    29 ar  
    61    26    27 ar  
    62    26    63 1   
    63    27    28 ar  
    64    27    64 1   
    65    28    39 ar  
    66    28    65 1   
    67    29    39 ar  
    68    29    66 1   
    69    30    31 1   
    70    30    67 1   
    71    30    68 1   
    72    31    32 1   
    73    31    69 1   
    74    31    70 1   
    75    32    33 1   
    76    33    71 1   
    77    33    72 1   
    78    34    73 1   
    79    35    74 1   
    80    36    75 1   
@<TRIPOS>SUBSTRUCTURE
     1 CIF         1 TEMP              0 ****  ****    0 ROOT
