@<TRIPOS>MOLECULE
CIG
   12    12     1     0     0
SMALL
abcg2


@<TRIPOS>ATOM
      1 N01          2.4730    -1.3810    -0.1050 nv         1 CIG      -1.067900
      2 C02          1.5070    -0.4480    -0.0520 ca         1 CIG       0.587900
      3 C03          1.8080     0.9340    -0.0160 ca         1 CIG       0.216900
      4 N04          0.8610     1.8390    -0.0000 nb         1 CIG      -0.593000
      5 C05         -0.4110     1.4420    -0.0180 ca         1 CIG       0.232900
      6 C06         -0.6840     0.0890    -0.0480 ca         1 CIG       0.447000
      7 CL1         -2.3330    -0.4410    -0.0650 cl         1 CIG      -0.160000
      8 N08          0.2360    -0.8460    -0.0630 nb         1 CIG      -0.726000
      9 H011         3.4270    -1.1290     0.0860 hn         1 CIG       0.493500
     10 H012         2.2260    -2.3460     0.0350 hn         1 CIG       0.493500
     11 H03          2.8390     1.2720    -0.0010 h4         1 CIG       0.030100
     12 H05         -1.1920     2.1900    -0.0070 h4         1 CIG       0.046100
@<TRIPOS>BOND
     1     1     2 1   
     2     1     9 1   
     3     1    10 1   
     4     2     3 ar  
     5     2     8 ar  
     6     3     4 ar  
     7     3    11 1   
     8     4     5 ar  
     9     5     6 ar  
    10     5    12 1   
    11     6     7 1   
    12     6     8 ar  
@<TRIPOS>SUBSTRUCTURE
     1 CIG         1 TEMP              0 ****  ****    0 ROOT
