@<TRIPOS>MOLECULE
CIG
   12    12     1     0     0
SMALL
No Charge or Current Charge


@<TRIPOS>ATOM
      1 N01          2.4480    -1.4100    -0.1440 nv         1 CIG      -1.067900
      2 C02          1.5500    -0.4010    -0.0980 ca         1 CIG       0.587900
      3 C03          1.8500     1.0010    -0.0420 ca         1 CIG       0.216900
      4 N04          0.8700     1.9500     0.0070 nb         1 CIG      -0.593000
      5 C05         -0.4010     1.4500     0.0000 ca         1 CIG       0.232900
      6 C06         -0.6720     0.0510    -0.0540 ca         1 CIG       0.447000
      7 Cl1         -2.3280    -0.5460    -0.0590 cl         1 CIG      -0.160000
      8 N08          0.3080    -0.8950    -0.1020 nb         1 CIG      -0.726000
      9 H011         3.3910    -1.2220     0.1850 hn         1 CIG       0.493500
     10 H012         2.0760    -2.3330     0.0510 hn         1 CIG       0.493500
     11 H03          2.8790     1.3570    -0.0390 h4         1 CIG       0.030100
     12 H05         -1.2140     2.1740     0.0390 h4         1 CIG       0.046100
@<TRIPOS>BOND
     1     1     2 1   
     2     1     9 1   
     3     1    10 1   
     4     2     3 ar  
     5     2     8 ar  
     6     3     4 ar  
     7     3    11 1   
     8     4     5 ar  
     9     5     6 ar  
    10     5    12 1   
    11     6     7 1   
    12     6     8 ar  
@<TRIPOS>SUBSTRUCTURE
     1 CIG         1 TEMP              0 ****  ****    0 ROOT
