@<TRIPOS>MOLECULE
CIH
   35    36     1     0     0
SMALL
bcc


@<TRIPOS>ATOM
      1 CLAE         3.5480     0.0610     2.0840 cl         1 CIH      -0.103400
      2 CAS          4.1850    -0.2940     0.5140 ca         1 CIH       0.047400
      3 CAJ          5.5550    -0.4520     0.3720 ca         1 CIH      -0.125000
      4 CAH          6.0800    -0.7600    -0.8740 ca         1 CIH      -0.116000
      5 CAI          5.2370    -0.9140    -1.9650 ca         1 CIH      -0.130000
      6 CAL          3.8690    -0.7500    -1.8070 ca         1 CIH      -0.105000
      7 CAV          3.3170    -0.4320    -0.5680 cp         1 CIH      -0.024000
      8 CAW          1.8530    -0.2830    -0.4310 cp         1 CIH      -0.065000
      9 CAT          1.2370     0.9480    -0.2300 ca         1 CIH       0.079400
     10 CAN         -0.1340     1.0700    -0.1230 ca         1 CIH      -0.190000
     11 CLAF         2.1960     2.3850    -0.1360 cl         1 CIH      -0.100400
     12 CAM          1.0200    -1.3910    -0.5320 ca         1 CIH      -0.079000
     13 CAK         -0.3590    -1.3040    -0.4270 ca         1 CIH      -0.156000
     14 CAU         -0.9520    -0.0580    -0.2170 ca         1 CIH       0.096600
     15 NAO         -2.3230     0.1690    -0.1030 ns         1 CIH      -0.473100
     16 CAQ         -3.3440    -0.7350    -0.1490 c          1 CIH       0.717300
     17 OAC         -3.1690    -1.9340    -0.2430 o          1 CIH      -0.565100
     18 CAR         -4.6970    -0.1280    -0.0790 ce         1 CIH      -0.202900
     19 CAG         -4.8210     1.2700    -0.2680 cg         1 CIH       0.203500
     20 NAA         -4.8700     2.4140    -0.4290 n1         1 CIH      -0.377800
     21 CAP         -5.8390    -0.8510     0.1470 c2         1 CIH       0.228900
     22 CAB         -7.1980    -0.2460     0.2140 c3         1 CIH      -0.126900
     23 OAD         -5.7650    -2.1470     0.3330 oh         1 CIH      -0.433100
     24 HAJ          6.2070    -0.3410     1.2280 ha         1 CIH       0.147000
     25 HAH          7.1490    -0.8810    -0.9860 ha         1 CIH       0.135000
     26 HAI          5.6410    -1.1580    -2.9380 ha         1 CIH       0.136000
     27 HAL          3.2080    -0.8630    -2.6570 ha         1 CIH       0.139000
     28 HAN         -0.5730     2.0480     0.0310 ha         1 CIH       0.147000
     29 HAM          1.4660    -2.3650    -0.6940 ha         1 CIH       0.140000
     30 HAK         -0.9500    -2.2000    -0.5070 ha         1 CIH       0.171000
     31 HNAO        -2.5660     1.1360     0.0560 hn         1 CIH       0.325500
     32 HAB         -7.8430    -0.7150    -0.5320 hc         1 CIH       0.073700
     33 HABA        -7.6350    -0.4430     1.1950 hc         1 CIH       0.073700
     34 HABB        -7.2050     0.8250     0.0460 hc         1 CIH       0.073700
     35 HOAD        -6.6390    -2.5210     0.5070 ho         1 CIH       0.440000
@<TRIPOS>BOND
     1     1     2 1   
     2     2     3 ar  
     3     2     7 ar  
     4     3     4 ar  
     5     3    24 1   
     6     4     5 ar  
     7     4    25 1   
     8     5     6 ar  
     9     5    26 1   
    10     6     7 ar  
    11     6    27 1   
    12     7     8 1   
    13     8     9 ar  
    14     8    12 ar  
    15     9    10 ar  
    16     9    11 1   
    17    10    14 ar  
    18    10    28 1   
    19    12    13 ar  
    20    12    29 1   
    21    13    14 ar  
    22    13    30 1   
    23    14    15 1   
    24    15    16 1   
    25    15    31 1   
    26    16    17 2   
    27    16    18 1   
    28    18    19 1   
    29    18    21 2   
    30    19    20 3   
    31    21    22 1   
    32    21    23 1   
    33    22    32 1   
    34    22    33 1   
    35    22    34 1   
    36    23    35 1   
@<TRIPOS>SUBSTRUCTURE
     1 CIH         1 TEMP              0 ****  ****    0 ROOT
