@<TRIPOS>MOLECULE
CIH
   35    36     1     0     0
SMALL
No Charge or Current Charge


@<TRIPOS>ATOM
      1 ClAE         3.4010    -0.2720     2.2170 cl         1 CIH      -0.195000
      2 CAS          4.1410    -0.4170     0.6220 ca         1 CIH       0.139000
      3 CAJ          5.5400    -0.5360     0.5460 ca         1 CIH      -0.107000
      4 CAH          6.1720    -0.6810    -0.7010 ca         1 CIH      -0.098000
      5 CAI          5.4030    -0.7130    -1.8750 ca         1 CIH      -0.112000
      6 CAL          4.0040    -0.5950    -1.8020 ca         1 CIH      -0.087000
      7 CAV          3.3510    -0.4370    -0.5570 cp         1 CIH      -0.024000
      8 CAW          1.8660    -0.3140    -0.5090 cp         1 CIH      -0.065000
      9 CAT          1.2280     0.9150    -0.2130 ca         1 CIH       0.171000
     10 CAN         -0.1740     1.0020    -0.1750 ca         1 CIH      -0.172000
     11 ClAF         2.1620     2.3810     0.0860 cl         1 CIH      -0.192000
     12 CAM          1.0560    -1.4390    -0.7810 ca         1 CIH      -0.061000
     13 CAK         -0.3460    -1.3500    -0.7410 ca         1 CIH      -0.138000
     14 CAU         -0.9750    -0.1260    -0.4280 ca         1 CIH       0.004000
     15 NAO         -2.3860     0.0440    -0.3750 ns         1 CIH      -0.147000
     16 CAQ         -3.4430    -0.8630    -0.4070 c          1 CIH       0.650300
     17 OAC         -3.2730    -2.0770    -0.4130 o          1 CIH      -0.565100
     18 CAR         -4.8070    -0.2390    -0.3320 ce         1 CIH      -0.202900
     19 CAG         -4.9620     1.0290    -0.9740 cg         1 CIH       0.292700
     20 NAA         -5.0480     2.0750    -1.4820 n1         1 CIH      -0.467000
     21 CAP         -5.8280    -0.7680     0.3910 c2         1 CIH       0.228900
     22 CAB         -7.2080    -0.1410     0.5310 c3         1 CIH      -0.126900
     23 OAD         -5.7010    -1.9120     1.0870 oh         1 CIH      -0.472100
     24 HAJ          6.1340    -0.5200     1.4570 ha         1 CIH       0.129000
     25 HAH          7.2550    -0.7730    -0.7550 ha         1 CIH       0.117000
     26 HAI          5.8890    -0.8290    -2.8410 ha         1 CIH       0.118000
     27 HAL          3.4160    -0.6190    -2.7170 ha         1 CIH       0.121000
     28 HAN         -0.6380     1.9580     0.0530 ha         1 CIH       0.129000
     29 HAM          1.5250    -2.3910    -1.0220 ha         1 CIH       0.122000
     30 HAK         -0.9230    -2.2420    -0.9660 ha         1 CIH       0.153000
     31 HNAO        -2.6760     1.0110    -0.3090 hn         1 CIH       0.159000
     32 HAB         -7.6500     0.0550    -0.4530 hc         1 CIH       0.073700
     33 HABA        -7.9150    -0.7770     1.0770 hc         1 CIH       0.073700
     34 HABB        -7.1490     0.8150     1.0660 hc         1 CIH       0.073700
     35 HOAD        -6.5550    -2.0930     1.5310 ho         1 CIH       0.479000
@<TRIPOS>BOND
     1     1     2 1   
     2     2     3 ar  
     3     2     7 ar  
     4     3     4 ar  
     5     3    24 1   
     6     4     5 ar  
     7     4    25 1   
     8     5     6 ar  
     9     5    26 1   
    10     6     7 ar  
    11     6    27 1   
    12     7     8 1   
    13     8     9 ar  
    14     8    12 ar  
    15     9    10 ar  
    16     9    11 1   
    17    10    14 ar  
    18    10    28 1   
    19    12    13 ar  
    20    12    29 1   
    21    13    14 ar  
    22    13    30 1   
    23    14    15 1   
    24    15    16 1   
    25    15    31 1   
    26    16    17 2   
    27    16    18 1   
    28    18    19 1   
    29    18    21 2   
    30    19    20 3   
    31    21    22 1   
    32    21    23 1   
    33    22    32 1   
    34    22    33 1   
    35    22    34 1   
    36    23    35 1   
@<TRIPOS>SUBSTRUCTURE
     1 CIH         1 TEMP              0 ****  ****    0 ROOT
