@<TRIPOS>MOLECULE
CII
   47    48     1     0     0
SMALL
No Charge or Current Charge


@<TRIPOS>ATOM
      1 O1         -18.0250     0.6410    68.8390 o          1 CII      -0.577100
      2 C8         -17.7920    -0.1490    69.7410 c          1 CII       0.593100
      3 C9         -18.8960    -0.6550    70.6900 c6         1 CII      -0.146700
      4 C10        -18.5330    -0.4110    72.1850 c6         1 CII      -0.067400
      5 C11        -19.7260    -0.7480    73.1240 c6         1 CII      -0.074400
      6 C12        -20.6120    -1.9060    72.5860 c6         1 CII      -0.075400
      7 C13        -19.7880    -2.8920    71.7270 c6         1 CII      -0.074400
      8 C14        -19.1530    -2.1900    70.4910 c6         1 CII      -0.067400
      9 N3         -16.5190    -0.6160    69.9890 ns         1 CII      -0.524900
     10 C7         -15.3010    -0.1790    69.2590 c3         1 CII       0.029700
     11 C15        -14.0790    -0.1000    70.2220 c3         1 CII      -0.071700
     12 C16        -13.6840    -1.4750    70.8170 c3         1 CII      -0.092600
     13 C17        -14.2920     0.9500    71.3390 c3         1 CII      -0.092600
     14 C6         -15.0140    -1.0490    67.9930 c          1 CII       0.607100
     15 O2         -14.1130    -0.7590    67.2120 o          1 CII      -0.572100
     16 N2         -15.8520    -2.1470    67.8280 ns         1 CII      -0.137000
     17 C5         -15.9140    -3.1650    66.8410 ca         1 CII       0.024000
     18 C1         -15.0100    -3.2890    65.7680 ca         1 CII      -0.209500
     19 C2         -15.1680    -4.3400    64.8500 ca         1 CII       0.357400
     20 N1         -16.1570    -5.2570    64.9410 nb         1 CII      -0.684000
     21 C3         -17.0250    -5.1420    65.9700 ca         1 CII       0.357400
     22 C4         -16.9380    -4.1220    66.9310 ca         1 CII      -0.209500
     23 H9         -19.8110    -0.1000    70.4420 hc         1 CII       0.087700
     24 H3         -16.4140    -1.2350    70.7840 hn         1 CII       0.320500
     25 H101       -17.6650    -1.0220    72.4690 hc         1 CII       0.041700
     26 H102       -18.2330     0.6360    72.3390 hc         1 CII       0.041700
     27 H141       -19.8080    -2.3240    69.6180 hc         1 CII       0.041700
     28 H142       -18.2200    -2.7130    70.2410 hc         1 CII       0.041700
     29 H111       -19.3360    -1.0080    74.1180 hc         1 CII       0.042700
     30 H112       -20.3520     0.1440    73.2680 hc         1 CII       0.042700
     31 H121       -21.0890    -2.4340    73.4230 hc         1 CII       0.044200
     32 H122       -21.4300    -1.4940    71.9770 hc         1 CII       0.044200
     33 H131       -18.9950    -3.3330    72.3480 hc         1 CII       0.042700
     34 H132       -20.4190    -3.7290    71.3980 hc         1 CII       0.042700
     35 H7         -15.4820     0.8320    68.8710 h1         1 CII       0.098700
     36 H15        -13.2230     0.2490    69.6280 hc         1 CII       0.078700
     37 H161       -13.4750    -2.2040    70.0250 hc         1 CII       0.038533
     38 H162       -12.7780    -1.3820    71.4290 hc         1 CII       0.038533
     39 H163       -14.4800    -1.8780    71.4550 hc         1 CII       0.038533
     40 H171       -15.1080     0.6560    72.0110 hc         1 CII       0.038533
     41 H172       -13.3820     1.0650    71.9400 hc         1 CII       0.038533
     42 H173       -14.5380     1.9290    70.9100 hc         1 CII       0.038533
     43 H1         -14.1860    -2.5990    65.6230 ha         1 CII       0.135500
     44 H4         -17.6680    -4.0840    67.7350 ha         1 CII       0.135500
     45 H2         -14.4780    -4.4530    64.0140 h4         1 CII       0.017600
     46 HA         -16.5510    -2.2370    68.5530 hn         1 CII       0.160000
     47 HB         -17.8140    -5.8910    66.0260 h4         1 CII       0.017600
@<TRIPOS>BOND
     1     1     2 2   
     2     2     3 1   
     3     2     9 1   
     4     3     4 1   
     5     3     8 1   
     6     3    23 1   
     7     4     5 1   
     8     4    25 1   
     9     4    26 1   
    10     5     6 1   
    11     5    29 1   
    12     5    30 1   
    13     6     7 1   
    14     6    31 1   
    15     6    32 1   
    16     7     8 1   
    17     7    33 1   
    18     7    34 1   
    19     8    27 1   
    20     8    28 1   
    21     9    10 1   
    22     9    24 1   
    23    10    11 1   
    24    10    14 1   
    25    10    35 1   
    26    11    12 1   
    27    11    13 1   
    28    11    36 1   
    29    12    37 1   
    30    12    38 1   
    31    12    39 1   
    32    13    40 1   
    33    13    41 1   
    34    13    42 1   
    35    14    15 2   
    36    14    16 1   
    37    16    17 1   
    38    16    46 1   
    39    17    18 ar  
    40    17    22 ar  
    41    18    19 ar  
    42    18    43 1   
    43    19    20 ar  
    44    19    45 1   
    45    20    21 ar  
    46    21    22 ar  
    47    21    47 1   
    48    22    44 1   
@<TRIPOS>SUBSTRUCTURE
     1 CII         1 TEMP              0 ****  ****    0 ROOT
