@<TRIPOS>MOLECULE
CII
   47    48     1     0     0
SMALL
bcc


@<TRIPOS>ATOM
      1 O1         -18.0570     0.3440    68.7010 o          1 CII      -0.577100
      2 C8         -17.8260    -0.2730    69.7280 c          1 CII       0.660100
      3 C9         -18.9030    -0.6830    70.7090 c6         1 CII      -0.146700
      4 C10        -18.5680    -0.3380    72.1610 c6         1 CII      -0.067400
      5 C11        -19.8050    -0.5310    73.0460 c6         1 CII      -0.074400
      6 C12        -20.6660    -1.7220    72.5950 c6         1 CII      -0.075400
      7 C13        -19.8220    -2.7620    71.8690 c6         1 CII      -0.074400
      8 C14        -19.2330    -2.1890    70.5740 c6         1 CII      -0.067400
      9 N3         -16.5640    -0.6680    70.0400 ns         1 CII      -0.591900
     10 C7         -15.4160    -0.2200    69.2910 c3         1 CII       0.029700
     11 C15        -14.1360    -0.2600    70.1490 c3         1 CII      -0.071700
     12 C16        -13.7380    -1.6710    70.5710 c3         1 CII      -0.092600
     13 C17        -14.2650     0.6670    71.3540 c3         1 CII      -0.092600
     14 C6         -15.1960    -0.9900    67.9900 c          1 CII       0.674100
     15 O2         -14.4650    -0.5420    67.1290 o          1 CII      -0.572100
     16 N2         -15.8330    -2.1860    67.9130 ns         1 CII      -0.463100
     17 C5         -15.8150    -3.1280    66.8940 ca         1 CII       0.116600
     18 C1         -15.0760    -3.0220    65.7160 ca         1 CII      -0.292800
     19 C2         -15.1650    -4.0540    64.7950 ca         1 CII       0.422700
     20 N1         -15.9040    -5.1450    64.9480 nb         1 CII      -0.684000
     21 C3         -16.6050    -5.2360    66.0740 ca         1 CII       0.422700
     22 C4         -16.5970    -4.2720    67.0640 ca         1 CII      -0.292800
     23 H9         -19.7870    -0.1070    70.4250 hc         1 CII       0.087700
     24 H3         -16.4060    -1.1120    70.9310 hn         1 CII       0.320500
     25 H101       -17.7560    -0.9770    72.5270 hc         1 CII       0.041700
     26 H102       -18.2090     0.6900    72.2440 hc         1 CII       0.041700
     27 H141       -19.9350    -2.3220    69.7490 hc         1 CII       0.041700
     28 H142       -18.3370    -2.7580    70.3120 hc         1 CII       0.041700
     29 H111       -19.4800    -0.6730    74.0790 hc         1 CII       0.042700
     30 H112       -20.4050     0.3820    73.0340 hc         1 CII       0.042700
     31 H121       -21.1660    -2.1700    73.4550 hc         1 CII       0.044200
     32 H122       -21.4640    -1.3810    71.9280 hc         1 CII       0.044200
     33 H131       -19.0150    -3.0960    72.5280 hc         1 CII       0.042700
     34 H132       -20.4130    -3.6500    71.6390 hc         1 CII       0.042700
     35 H7         -15.5750     0.8190    68.9880 h1         1 CII       0.098700
     36 H15        -13.3440     0.1410    69.5110 hc         1 CII       0.078700
     37 H161       -13.5390    -2.3210    69.7180 hc         1 CII       0.038533
     38 H162       -12.8250    -1.6360    71.1670 hc         1 CII       0.038533
     39 H163       -14.4990    -2.1550    71.1870 hc         1 CII       0.038533
     40 H171       -14.9900     0.3020    72.0850 hc         1 CII       0.038533
     41 H172       -13.3070     0.7450    71.8670 hc         1 CII       0.038533
     42 H173       -14.5680     1.6720    71.0550 hc         1 CII       0.038533
     43 H1         -14.4470    -2.1750    65.5030 ha         1 CII       0.153500
     44 H4         -17.1940    -4.4160    67.9560 ha         1 CII       0.153500
     45 H2         -14.5940    -3.9820    63.8760 h4         1 CII       0.017600
     46 HA         -16.4060    -2.4220    68.7110 hn         1 CII       0.326500
     47 HB         -17.2100    -6.1260    66.2030 h4         1 CII       0.017600
@<TRIPOS>BOND
     1     1     2 2   
     2     2     3 1   
     3     2     9 1   
     4     3     4 1   
     5     3     8 1   
     6     3    23 1   
     7     4     5 1   
     8     4    25 1   
     9     4    26 1   
    10     5     6 1   
    11     5    29 1   
    12     5    30 1   
    13     6     7 1   
    14     6    31 1   
    15     6    32 1   
    16     7     8 1   
    17     7    33 1   
    18     7    34 1   
    19     8    27 1   
    20     8    28 1   
    21     9    10 1   
    22     9    24 1   
    23    10    11 1   
    24    10    14 1   
    25    10    35 1   
    26    11    12 1   
    27    11    13 1   
    28    11    36 1   
    29    12    37 1   
    30    12    38 1   
    31    12    39 1   
    32    13    40 1   
    33    13    41 1   
    34    13    42 1   
    35    14    15 2   
    36    14    16 1   
    37    16    17 1   
    38    16    46 1   
    39    17    18 ar  
    40    17    22 ar  
    41    18    19 ar  
    42    18    43 1   
    43    19    20 ar  
    44    19    45 1   
    45    20    21 ar  
    46    21    22 ar  
    47    21    47 1   
    48    22    44 1   
@<TRIPOS>SUBSTRUCTURE
     1 CII         1 TEMP              0 ****  ****    0 ROOT
