@<TRIPOS>MOLECULE
CIJ
   31    33     1     0     0
SMALL
No Charge or Current Charge


@<TRIPOS>ATOM
      1 Cl          -4.7080     1.6110    -0.6540 cl         1 CIJ      -0.167000
      2 OAB          1.5320    -2.1950     0.9760 o          1 CIJ      -0.527000
      3 OAC          5.8580     0.1040    -1.4890 oh         1 CIJ      -0.524100
      4 OAD          4.1760    -1.8820    -0.4530 oh         1 CIJ      -0.545100
      5 CAG          4.3170     1.8160    -0.7880 ca         1 CIJ      -0.122000
      6 CAH         -3.0470    -2.0980    -0.4820 ca         1 CIJ      -0.151000
      7 CAI         -1.9920    -1.9120     0.4290 ca         1 CIJ      -0.065000
      8 CAJ          3.1050     2.1940    -0.1690 ca         1 CIJ      -0.029000
      9 CAK         -2.6150     0.4310     0.6690 ca         1 CIJ      -0.052000
     10 CAM          4.6820     0.4520    -0.8860 ca         1 CIJ       0.139100
     11 CAN         -3.8830    -1.0210    -0.8170 ca         1 CIJ       0.189000
     12 CAO          3.8360    -0.5590    -0.3640 ca         1 CIJ       0.125100
     13 CAP         -3.6690     0.2470    -0.2420 ca         1 CIJ       0.062000
     14 CAQ         -1.7730    -0.6470     1.0110 ca         1 CIJ      -0.128300
     15 CAR          0.9660     1.2650     1.0360 c          1 CIJ       0.594600
     16 CAS          1.5680    -0.9780     0.8730 c          1 CIJ       0.599600
     17 CAT          2.2840     1.1770     0.3410 ca         1 CIJ      -0.151600
     18 CAU          2.6410    -0.1640     0.2450 ca         1 CIJ      -0.222600
     19 NAV          0.6230    -0.0570     1.3140 n          1 CIJ      -0.388400
     20 HOAC         5.9120    -0.8770    -1.4490 ho         1 CIJ       0.492000
     21 HOAD         3.4580    -2.4120    -0.0340 ho         1 CIJ       0.510000
     22 HAG          4.9760     2.5790    -1.1940 ha         1 CIJ       0.142000
     23 HAH         -3.2160    -3.0730    -0.9310 ha         1 CIJ       0.137000
     24 HAI         -1.3440    -2.7500     0.6810 ha         1 CIJ       0.131000
     25 HAJ          2.8170     3.2410    -0.0900 ha         1 CIJ       0.143000
     26 HAK         -2.4530     1.4140     1.1070 ha         1 CIJ       0.142000
     27 HAL         -0.8960     0.3340     2.7170 h1         1 CIJ       0.073700
     28 HALA        -0.4580    -1.3670     2.5570 h1         1 CIJ       0.073700
     29 FAE         -4.8940    -1.2130    -1.6960 f          1 CIJ      -0.160000
     30 CAL         -0.6250    -0.4420     1.9890 c3         1 CIJ       0.160300
     31 OAA          0.3240     2.2700     1.3040 o          1 CIJ      -0.482000
@<TRIPOS>BOND
     1     1    13 1   
     2     2    16 2   
     3     3    10 1   
     4     3    20 1   
     5     4    12 1   
     6     4    21 1   
     7     5     8 ar  
     8     5    10 ar  
     9     5    22 1   
    10     6     7 ar  
    11     6    11 ar  
    12     6    23 1   
    13     7    14 ar  
    14     7    24 1   
    15     8    17 ar  
    16     8    25 1   
    17     9    13 ar  
    18     9    14 ar  
    19     9    26 1   
    20    10    12 ar  
    21    11    13 ar  
    22    11    29 1   
    23    12    18 ar  
    24    14    30 1   
    25    15    17 1   
    26    15    19 1   
    27    15    31 2   
    28    16    18 1   
    29    16    19 1   
    30    17    18 ar  
    31    19    30 1   
    32    27    30 1   
    33    28    30 1   
@<TRIPOS>SUBSTRUCTURE
     1 CIJ         1 TEMP              0 ****  ****    0 ROOT
