@<TRIPOS>MOLECULE
CIJ
   31    33     1     0     0
SMALL
abcg2


@<TRIPOS>ATOM
      1 CL          -4.8830     1.5120    -0.3150 cl         1 CIJ      -0.167000
      2 OAB          1.5890    -2.1710     1.1760 o          1 CIJ      -0.527000
      3 OAC          5.8170     0.0800    -1.4070 oh         1 CIJ      -0.524100
      4 OAD          4.2940    -1.8550    -0.2580 oh         1 CIJ      -0.545100
      5 CAG          4.2170     1.7150    -0.8840 ca         1 CIJ      -0.122000
      6 CAH         -2.9200    -1.9350    -0.6510 ca         1 CIJ      -0.151000
      7 CAI         -1.8920    -1.7840     0.2660 ca         1 CIJ      -0.065000
      8 CAJ          3.0000     2.1120    -0.3280 ca         1 CIJ      -0.029000
      9 CAK         -2.6910     0.4070     0.8320 ca         1 CIJ      -0.052000
     10 CAM          4.6390     0.3920    -0.8560 ca         1 CIJ       0.139100
     11 CAN         -3.8270    -0.9090    -0.8160 ca         1 CIJ       0.189000
     12 CAO          3.8310    -0.6010    -0.2530 ca         1 CIJ       0.125100
     13 CAP         -3.7240     0.2590    -0.0810 ca         1 CIJ       0.062000
     14 CAQ         -1.7670    -0.6150     1.0110 ca         1 CIJ      -0.128300
     15 CAR          0.9090     1.2140     0.9170 c          1 CIJ       0.594600
     16 CAS          1.5980    -0.9790     0.9650 c          1 CIJ       0.599600
     17 CAT          2.2240     1.1410     0.2540 ca         1 CIJ      -0.151600
     18 CAU          2.6360    -0.1880     0.2880 ca         1 CIJ      -0.222600
     19 NAV          0.6070    -0.0850     1.3220 n          1 CIJ      -0.388400
     20 HOAC         6.0010    -0.8650    -1.3370 ho         1 CIJ       0.492000
     21 HOAD         3.6690    -2.4620     0.1630 ho         1 CIJ       0.510000
     22 HAG          4.8610     2.4480    -1.3540 ha         1 CIJ       0.142000
     23 HAH         -3.0220    -2.8430    -1.2310 ha         1 CIJ       0.137000
     24 HAI         -1.1830    -2.5910     0.4020 ha         1 CIJ       0.131000
     25 HAJ          2.6940     3.1490    -0.3630 ha         1 CIJ       0.143000
     26 HAK         -2.6160     1.3220     1.4040 ha         1 CIJ       0.142000
     27 HAL         -0.8590     0.3150     2.7260 h1         1 CIJ       0.073700
     28 HALA        -0.4520    -1.3780     2.5270 h1         1 CIJ       0.073700
     29 FAE         -4.8240    -1.0390    -1.6940 f          1 CIJ      -0.160000
     30 CAL         -0.6290    -0.4500     1.9850 c3         1 CIJ       0.160300
     31 OAA          0.2010     2.1710     1.1030 o          1 CIJ      -0.482000
@<TRIPOS>BOND
     1     1    13 1   
     2     2    16 2   
     3     3    10 1   
     4     3    20 1   
     5     4    12 1   
     6     4    21 1   
     7     5     8 ar  
     8     5    10 ar  
     9     5    22 1   
    10     6     7 ar  
    11     6    11 ar  
    12     6    23 1   
    13     7    14 ar  
    14     7    24 1   
    15     8    17 ar  
    16     8    25 1   
    17     9    13 ar  
    18     9    14 ar  
    19     9    26 1   
    20    10    12 ar  
    21    11    13 ar  
    22    11    29 1   
    23    12    18 ar  
    24    14    30 1   
    25    15    17 1   
    26    15    19 1   
    27    15    31 2   
    28    16    18 1   
    29    16    19 1   
    30    17    18 ar  
    31    19    30 1   
    32    27    30 1   
    33    28    30 1   
@<TRIPOS>SUBSTRUCTURE
     1 CIJ         1 TEMP              0 ****  ****    0 ROOT
