@<TRIPOS>MOLECULE
CIL
   48    48     1     0     0
SMALL
No Charge or Current Charge


@<TRIPOS>ATOM
      1 C1           4.0890    -2.8220     1.1720 cx         1 CIL      -0.100400
      2 C2           4.4480    -1.7530     0.1570 cx         1 CIL      -0.209700
      3 C3           3.1340    -2.5120     0.0410 cx         1 CIL      -0.098000
      4 C4           1.8000    -1.8430     0.3700 c3         1 CIL      -0.060600
      5 C5           2.9700    -3.5210    -1.0940 c3         1 CIL      -0.060600
      6 C6           4.4650    -0.3020     0.5870 c          1 CIL       0.643100
      7 N7           3.9410     0.5540    -0.3620 ns         1 CIL      -0.409100
      8 C8           3.8760     1.9760    -0.4480 ce         1 CIL      -0.029600
      9 C9           2.8350     2.5910    -1.0660 c2         1 CIL      -0.288200
     10 O10          4.8710     0.0530     1.6860 o          1 CIL      -0.595100
     11 C11          5.0440     2.7830     0.1560 c          1 CIL       0.721200
     12 O12          4.9030     3.9930     0.2860 o          1 CIL      -0.718000
     13 O13          6.1220     2.2400     0.3650 o          1 CIL      -0.718000
     14 C14          1.6290     1.9220    -1.6980 c3         1 CIL      -0.027200
     15 C15          0.5130     1.6510    -0.6680 c3         1 CIL      -0.074400
     16 C16         -0.7040     0.9140    -1.2680 c3         1 CIL      -0.065400
     17 C17         -1.7870     0.5980    -0.2190 c3         1 CIL       0.056600
     18 C18         -4.2920    -0.5270     0.4950 c3         1 CIL       0.112600
     19 C19         -5.6100    -1.2820     0.1660 c3         1 CIL       0.018500
     20 C20         -6.2660    -1.7680     1.5170 c          1 CIL       0.695000
     21 O22         -6.3890    -2.9710     1.7020 o          1 CIL      -0.733500
     22 O23         -6.7090    -0.9260     2.2860 o          1 CIL      -0.733500
     23 N21         -6.5180    -0.4890    -0.7570 n8         1 CIL      -0.986200
     24 S           -3.2120    -0.2840    -1.0010 ss         1 CIL      -0.480000
     25 H11          4.6390    -3.7590     1.1350 hc         1 CIL       0.072200
     26 H12A         3.8110    -2.5050     2.1750 hc         1 CIL       0.072200
     27 H2           5.2290    -2.0110    -0.5540 hc         1 CIL       0.072700
     28 H41          1.8900    -1.1310     1.1990 hc         1 CIL       0.035367
     29 H42          1.4120    -1.3000    -0.5000 hc         1 CIL       0.035367
     30 H43          1.0490    -2.5880     0.6600 hc         1 CIL       0.035367
     31 H51          2.2450    -4.2990    -0.8270 hc         1 CIL       0.035367
     32 H52          2.6170    -3.0290    -2.0090 hc         1 CIL       0.035367
     33 H53          3.9180    -4.0190    -1.3310 hc         1 CIL       0.035367
     34 H7           3.4500     0.0880    -1.1120 hn         1 CIL       0.292500
     35 H9           2.8090     3.6800    -1.1320 ha         1 CIL       0.196000
     36 H141         1.2290     2.5600    -2.4960 hc         1 CIL       0.019700
     37 H142         1.9210     0.9790    -2.1770 hc         1 CIL       0.019700
     38 H151         0.9230     1.0580     0.1590 hc         1 CIL       0.043200
     39 H152         0.1830     2.6040    -0.2380 hc         1 CIL       0.043200
     40 H161        -1.1420     1.5290    -2.0650 hc         1 CIL       0.038700
     41 H162        -0.3710    -0.0230    -1.7310 hc         1 CIL       0.038700
     42 H171        -1.3630    -0.0360     0.5710 h1         1 CIL       0.048700
     43 H172        -2.1470     1.5300     0.2360 h1         1 CIL       0.048700
     44 H181        -4.5230     0.4500     0.9400 h1         1 CIL       0.056700
     45 H182        -3.7230    -1.1070     1.2340 h1         1 CIL       0.056700
     46 H19         -5.3250    -2.1940    -0.3760 h1         1 CIL       0.051700
     47 H211        -7.3550    -1.0470    -0.9650 hn         1 CIL       0.379500
     48 H122        -6.8930     0.3130    -0.2370 hn         1 CIL       0.379500
@<TRIPOS>BOND
     1     1     2 1   
     2     1     3 1   
     3     1    25 1   
     4     1    26 1   
     5     2     3 1   
     6     2     6 1   
     7     2    27 1   
     8     3     4 1   
     9     3     5 1   
    10     4    28 1   
    11     4    29 1   
    12     4    30 1   
    13     5    31 1   
    14     5    32 1   
    15     5    33 1   
    16     6     7 1   
    17     6    10 2   
    18     7     8 1   
    19     7    34 1   
    20     8     9 2   
    21     8    11 1   
    22     9    14 1   
    23     9    35 1   
    24    11    12 1   
    25    11    13 1   
    26    14    15 1   
    27    14    36 1   
    28    14    37 1   
    29    15    16 1   
    30    15    38 1   
    31    15    39 1   
    32    16    17 1   
    33    16    40 1   
    34    16    41 1   
    35    17    24 1   
    36    17    42 1   
    37    17    43 1   
    38    18    19 1   
    39    18    24 1   
    40    18    44 1   
    41    18    45 1   
    42    19    20 1   
    43    19    23 1   
    44    19    46 1   
    45    20    21 1   
    46    20    22 1   
    47    23    47 1   
    48    23    48 1   
@<TRIPOS>SUBSTRUCTURE
     1 CIL         1 TEMP              0 ****  ****    0 ROOT
