@<TRIPOS>MOLECULE
CIL
   48    48     1     0     0
SMALL
abcg2


@<TRIPOS>ATOM
      1 C1           5.3240    -2.7120     0.4700 cx         1 CIL      -0.100400
      2 C2           4.6910    -1.6560    -0.3930 cx         1 CIL      -0.209700
      3 C3           3.9090    -2.8860     0.0380 cx         1 CIL      -0.098000
      4 C4           2.8020    -2.7630     1.0570 c3         1 CIL      -0.060600
      5 C5           3.6150    -3.8900    -1.0510 c3         1 CIL      -0.060600
      6 C6           4.3730    -0.3150     0.1720 c          1 CIL       0.643100
      7 N7           3.9870     0.5880    -0.7530 ns         1 CIL      -0.409100
      8 C8           3.6760     1.9260    -0.4250 ce         1 CIL      -0.029600
      9 C9           2.4810     2.4390    -0.7220 c2         1 CIL      -0.288200
     10 O10          4.4180    -0.0520     1.3650 o          1 CIL      -0.595100
     11 C11          4.7950     2.7730     0.1750 c          1 CIL       0.721200
     12 O12          4.4570     3.8530     0.6990 o          1 CIL      -0.718000
     13 O13          5.9490     2.3250     0.0550 o          1 CIL      -0.718000
     14 C14          1.3260     1.7190    -1.3360 c3         1 CIL      -0.027200
     15 C15          0.1380     1.6230    -0.3760 c3         1 CIL      -0.074400
     16 C16         -1.0590     0.9290    -1.0170 c3         1 CIL      -0.065400
     17 C17         -2.2380     0.8160    -0.0630 c3         1 CIL       0.056600
     18 C18         -4.8490     0.0130     0.4550 c3         1 CIL       0.112600
     19 C19         -5.9980    -0.9350     0.1350 c3         1 CIL       0.018500
     20 C20         -7.0200    -0.8980     1.3040 c          1 CIL       0.695000
     21 O22         -6.5750    -1.2390     2.4190 o          1 CIL      -0.733500
     22 O23         -8.1820    -0.5390     1.0420 o          1 CIL      -0.733500
     23 N21         -6.5250    -0.6360    -1.1850 n8         1 CIL      -0.986200
     24 S           -3.6310    -0.0010    -0.8930 ss         1 CIL      -0.480000
     25 H11          6.0890    -3.3310     0.0180 hc         1 CIL       0.072200
     26 H12A         5.5100    -2.4500     1.5050 hc         1 CIL       0.072200
     27 H2           4.9800    -1.6500    -1.4390 hc         1 CIL       0.072700
     28 H41          3.0640    -2.1070     1.8830 hc         1 CIL       0.035367
     29 H42          1.8880    -2.3800     0.5980 hc         1 CIL       0.035367
     30 H43          2.5720    -3.7460     1.4730 hc         1 CIL       0.035367
     31 H51          3.4800    -4.8870    -0.6250 hc         1 CIL       0.035367
     32 H52          2.6960    -3.6320    -1.5820 hc         1 CIL       0.035367
     33 H53          4.4190    -3.9490    -1.7840 hc         1 CIL       0.035367
     34 H7           3.8870     0.2830    -1.7080 hn         1 CIL       0.292500
     35 H9           2.3280     3.4870    -0.4890 ha         1 CIL       0.196000
     36 H141         1.0050     2.2530    -2.2370 hc         1 CIL       0.019700
     37 H142         1.6090     0.7140    -1.6530 hc         1 CIL       0.019700
     38 H151         0.4440     1.0750     0.5210 hc         1 CIL       0.043200
     39 H152        -0.1510     2.6250    -0.0450 hc         1 CIL       0.043200
     40 H161        -1.3620     1.4820    -1.9120 hc         1 CIL       0.038700
     41 H162        -0.7630    -0.0690    -1.3520 hc         1 CIL       0.038700
     42 H171        -1.9550     0.2440     0.8240 h1         1 CIL       0.048700
     43 H172        -2.5510     1.8080     0.2710 h1         1 CIL       0.048700
     44 H181        -5.2180     1.0340     0.5960 h1         1 CIL       0.056700
     45 H182        -4.3620    -0.2960     1.3790 h1         1 CIL       0.056700
     46 H19         -5.5820    -1.9480     0.0990 h1         1 CIL       0.051700
     47 H211        -7.2680    -1.2910    -1.3950 hn         1 CIL       0.379500
     48 H122        -6.9860     0.2670    -1.1520 hn         1 CIL       0.379500
@<TRIPOS>BOND
     1     1     2 1   
     2     1     3 1   
     3     1    25 1   
     4     1    26 1   
     5     2     3 1   
     6     2     6 1   
     7     2    27 1   
     8     3     4 1   
     9     3     5 1   
    10     4    28 1   
    11     4    29 1   
    12     4    30 1   
    13     5    31 1   
    14     5    32 1   
    15     5    33 1   
    16     6     7 1   
    17     6    10 2   
    18     7     8 1   
    19     7    34 1   
    20     8     9 2   
    21     8    11 1   
    22     9    14 1   
    23     9    35 1   
    24    11    12 1   
    25    11    13 1   
    26    14    15 1   
    27    14    36 1   
    28    14    37 1   
    29    15    16 1   
    30    15    38 1   
    31    15    39 1   
    32    16    17 1   
    33    16    40 1   
    34    16    41 1   
    35    17    24 1   
    36    17    42 1   
    37    17    43 1   
    38    18    19 1   
    39    18    24 1   
    40    18    44 1   
    41    18    45 1   
    42    19    20 1   
    43    19    23 1   
    44    19    46 1   
    45    20    21 1   
    46    20    22 1   
    47    23    47 1   
    48    23    48 1   
@<TRIPOS>SUBSTRUCTURE
     1 CIL         1 TEMP              0 ****  ****    0 ROOT
