@<TRIPOS>MOLECULE
CIN
   20    20     1     0     0
SMALL
abcg2


@<TRIPOS>ATOM
      1 C1          -0.3180    -0.0020     0.3860 ca         1 CIN      -0.048800
      2 C2          -1.4350    -0.0140    -0.4550 ca         1 CIN      -0.145500
      3 C3          -1.2970    -0.0060    -1.8340 ca         1 CIN      -0.097500
      4 C4          -0.0390     0.0150    -2.4280 ca         1 CIN      -0.155600
      5 C5           1.0780     0.0290    -1.5920 ca         1 CIN      -0.097500
      6 C6           0.9450     0.0210    -0.2150 ca         1 CIN      -0.145500
      7 C7          -0.5230    -0.0120     1.8340 ce         1 CIN      -0.194200
      8 C8           0.4130    -0.0140     2.7860 cf         1 CIN      -0.268200
      9 C9           0.0840    -0.0260     4.2610 c          1 CIN       0.700200
     10 C10          0.1140     0.0230    -3.9430 c          1 CIN       0.716600
     11 O1          -1.1190    -0.0360     4.5920 o          1 CIN      -0.747500
     12 O2           1.0680    -0.0250     5.0310 o          1 CIN      -0.747500
     13 O3          -0.9390     0.0110    -4.6090 o          1 CIN      -0.741500
     14 O4           1.2780     0.0390    -4.3870 o          1 CIN      -0.741500
     15 H2          -2.4270    -0.0320    -0.0180 ha         1 CIN       0.088000
     16 H3          -2.1800    -0.0170    -2.4600 ha         1 CIN       0.110500
     17 H5           2.0680     0.0470    -2.0300 ha         1 CIN       0.110500
     18 H6           1.8380     0.0330     0.3990 ha         1 CIN       0.088000
     19 H1          -1.5610    -0.0210     2.1560 ha         1 CIN       0.174000
     20 H4           1.4680    -0.0070     2.5290 ha         1 CIN       0.143000
@<TRIPOS>BOND
     1     1     2 ar  
     2     1     6 ar  
     3     1     7 1   
     4     2     3 ar  
     5     2    15 1   
     6     3     4 ar  
     7     3    16 1   
     8     4     5 ar  
     9     4    10 1   
    10     5     6 ar  
    11     5    17 1   
    12     6    18 1   
    13     7     8 2   
    14     7    19 1   
    15     8     9 1   
    16     8    20 1   
    17     9    11 1   
    18     9    12 1   
    19    10    13 1   
    20    10    14 1   
@<TRIPOS>SUBSTRUCTURE
     1 CIN         1 TEMP              0 ****  ****    0 ROOT
