@<TRIPOS>MOLECULE
CIN
   20    20     1     0     0
SMALL
No Charge or Current Charge


@<TRIPOS>ATOM
      1 C1          -0.3400    -0.0050     0.3720 ca         1 CIN      -0.048800
      2 C2          -1.4670    -0.0150    -0.4710 ca         1 CIN      -0.145500
      3 C3          -1.3210    -0.0050    -1.8690 ca         1 CIN      -0.097500
      4 C4          -0.0370     0.0150    -2.4620 ca         1 CIN      -0.155600
      5 C5           1.0920     0.0250    -1.6100 ca         1 CIN      -0.097500
      6 C6           0.9420     0.0150    -0.2120 ca         1 CIN      -0.145500
      7 C7          -0.5320    -0.0170     1.8510 ce         1 CIN      -0.194200
      8 C8           0.4070    -0.0100     2.8470 cf         1 CIN      -0.268200
      9 C9           0.1170    -0.0230     4.3110 c          1 CIN       0.700200
     10 C10          0.1250     0.0270    -3.9770 c          1 CIN       0.716600
     11 O1          -1.0450    -0.0400     4.6860 o          1 CIN      -0.747500
     12 O2           1.0700    -0.0150     5.0720 o          1 CIN      -0.747500
     13 O3          -0.8790     0.0180    -4.6750 o          1 CIN      -0.741500
     14 O4           1.2540     0.0440    -4.4470 o          1 CIN      -0.741500
     15 H2          -2.4670    -0.0310    -0.0430 ha         1 CIN       0.088000
     16 H3          -2.2130    -0.0130    -2.4910 ha         1 CIN       0.110500
     17 H5           2.0960     0.0410    -2.0300 ha         1 CIN       0.110500
     18 H6           1.8330     0.0230     0.4080 ha         1 CIN       0.088000
     19 H1          -1.5810    -0.0320     2.1540 ha         1 CIN       0.174000
     20 H4           1.4620     0.0050     2.5880 ha         1 CIN       0.143000
@<TRIPOS>BOND
     1     1     2 ar  
     2     1     6 ar  
     3     1     7 1   
     4     2     3 ar  
     5     2    15 1   
     6     3     4 ar  
     7     3    16 1   
     8     4     5 ar  
     9     4    10 1   
    10     5     6 ar  
    11     5    17 1   
    12     6    18 1   
    13     7     8 2   
    14     7    19 1   
    15     8     9 1   
    16     8    20 1   
    17     9    11 1   
    18     9    12 1   
    19    10    13 1   
    20    10    14 1   
@<TRIPOS>SUBSTRUCTURE
     1 CIN         1 TEMP              0 ****  ****    0 ROOT
