@<TRIPOS>MOLECULE
CIN
   20    20     1     0     0
SMALL
bcc


@<TRIPOS>ATOM
      1 H1          -0.3180    -0.0020     0.3860 ca         1 CIN      -0.037000
      2 H2          -1.4350    -0.0140    -0.4550 ca         1 CIN      -0.163500
      3 H3          -1.2970    -0.0060    -1.8340 ca         1 CIN      -0.115500
      4 H4          -0.0390     0.0150    -2.4280 ca         1 CIN      -0.135000
      5 H5           1.0780     0.0290    -1.5920 ca         1 CIN      -0.115500
      6 H6           0.9450     0.0210    -0.2150 ca         1 CIN      -0.163500
      7 H7          -0.5230    -0.0120     1.8340 c2         1 CIN      -0.156000
      8 H8           0.4130    -0.0140     2.7860 c2         1 CIN      -0.199000
      9 H9           0.0840    -0.0260     4.2610 c          1 CIN       0.361000
     10 H10          0.1140     0.0230    -3.9430 c          1 CIN       0.376000
     11 H1          -1.1190    -0.0360     4.5920 o          1 CIN      -0.587500
     12 H2           1.0680    -0.0250     5.0310 o          1 CIN      -0.587500
     13 H3          -0.9390     0.0110    -4.6090 o          1 CIN      -0.581500
     14 H4           1.2780     0.0390    -4.3870 o          1 CIN      -0.581500
     15 H2          -2.4270    -0.0320    -0.0180 ha         1 CIN       0.106000
     16 H3          -2.1800    -0.0170    -2.4600 ha         1 CIN       0.128500
     17 H5           2.0680     0.0470    -2.0300 ha         1 CIN       0.128500
     18 H6           1.8380     0.0330     0.3990 ha         1 CIN       0.106000
     19 H1          -1.5610    -0.0210     2.1560 ha         1 CIN       0.124000
     20 H4           1.4680    -0.0070     2.5290 ha         1 CIN       0.093000
@<TRIPOS>BOND
     1     1     2 ar  
     2     1     6 ar  
     3     1     7 1   
     4     2     3 ar  
     5     2    15 1   
     6     3     4 ar  
     7     3    16 1   
     8     4     5 ar  
     9     4    10 1   
    10     5     6 ar  
    11     5    17 1   
    12     6    18 1   
    13     7     8 2   
    14     7    19 1   
    15     8     9 1   
    16     8    20 1   
    17     9    11 1   
    18     9    12 1   
    19    10    13 1   
    20    10    14 1   
@<TRIPOS>SUBSTRUCTURE
     1 CIN         1 TEMP              0 ****  ****    0 ROOT
