@<TRIPOS>MOLECULE
CIO
   49    51     1     0     0
SMALL
No Charge or Current Charge


@<TRIPOS>ATOM
      1 O25          1.1270    -1.4610    -6.8960 o          1 CIO      -0.733500
      2 C23          0.3920    -0.7770    -6.1980 c          1 CIO       0.722000
      3 O24         -0.5610    -0.1480    -6.6340 o          1 CIO      -0.733500
      4 C4           0.6900    -0.7080    -4.6790 c6         1 CIO      -0.190700
      5 C5           1.0380     0.7310    -4.2140 c6         1 CIO      -0.057400
      6 C6           1.3690     0.7670    -2.6960 c6         1 CIO      -0.064400
      7 C3          -0.4690    -1.2870    -3.8250 c6         1 CIO      -0.057400
      8 C2          -0.1430    -1.2360    -2.3070 c6         1 CIO      -0.064400
      9 C1           0.2230     0.1980    -1.7850 c6         1 CIO       0.059400
     10 C21         -0.9620     1.0960    -1.8780 c1         1 CIO       0.336900
     11 N22         -1.8990     1.7890    -1.9230 n1         1 CIO      -0.504000
     12 C7           0.6190     0.1230    -0.2760 ca         1 CIO      -0.057300
     13 C8           1.8580     0.6030     0.2140 ca         1 CIO      -0.102000
     14 C9           2.1860     0.5070     1.5780 ca         1 CIO      -0.174000
     15 C10          1.2740    -0.0550     2.4950 ca         1 CIO       0.095100
     16 O11          1.5680    -0.1670     3.8440 os         1 CIO      -0.326100
     17 C12          2.8100     0.2920     4.4060 c3         1 CIO       0.148900
     18 C13          0.0180    -0.5020     2.0300 ca         1 CIO       0.118100
     19 C20         -0.2910    -0.4300     0.6560 ca         1 CIO      -0.167000
     20 O14         -0.8800    -1.0580     2.9270 os         1 CIO      -0.336100
     21 C15         -2.1240    -0.2950     2.9380 c5         1 CIO       0.168300
     22 C16         -1.9190     1.0710     3.6550 c5         1 CIO      -0.093900
     23 C17         -1.7160     0.6780     5.1500 c5         1 CIO      -0.073400
     24 C18         -2.4320    -0.7020     5.3150 c5         1 CIO      -0.073400
     25 C19         -3.0940    -0.9790     3.9320 c5         1 CIO      -0.093900
     26 H4           1.5760    -1.3350    -4.5010 hc         1 CIO       0.024700
     27 H51          0.2080     1.4150    -4.4390 hc         1 CIO       0.050950
     28 H52          1.9010     1.1030    -4.7830 hc         1 CIO       0.050950
     29 H61          1.6070     1.8010    -2.4100 hc         1 CIO       0.031950
     30 H62          2.2850     0.1810    -2.5380 hc         1 CIO       0.031950
     31 H31         -0.6600    -2.3280    -4.1220 hc         1 CIO       0.050950
     32 H32         -1.3990    -0.7390    -4.0290 hc         1 CIO       0.050950
     33 H21          0.6970    -1.9150    -2.1030 hc         1 CIO       0.031950
     34 H22         -0.9990    -1.6480    -1.7570 hc         1 CIO       0.031950
     35 H8           2.5950     1.0500    -0.4460 ha         1 CIO       0.121000
     36 H9           3.1550     0.8770     1.9010 ha         1 CIO       0.111000
     37 H121         2.8280     0.1080     5.4870 h1         1 CIO       0.033700
     38 H122         3.6600    -0.2360     3.9560 h1         1 CIO       0.033700
     39 H123         2.9360     1.3700     4.2420 h1         1 CIO       0.033700
     40 H20         -1.2460    -0.8150     0.3130 ha         1 CIO       0.126000
     41 H15         -2.5550    -0.2060     1.9320 h1         1 CIO       0.055700
     42 H161        -1.0790     1.6490     3.2560 hc         1 CIO       0.054700
     43 H162        -2.8100     1.6990     3.5370 hc         1 CIO       0.054700
     44 H171        -2.1310     1.4380     5.8220 hc         1 CIO       0.041200
     45 H172        -0.6510     0.5900     5.3950 hc         1 CIO       0.041200
     46 H181        -3.1730    -0.6900     6.1230 hc         1 CIO       0.041200
     47 H182        -1.7070    -1.4850     5.5650 hc         1 CIO       0.041200
     48 H191        -4.0920    -0.5300     3.8740 hc         1 CIO       0.054700
     49 H192        -3.2120    -2.0500     3.7320 hc         1 CIO       0.054700
@<TRIPOS>BOND
     1     1     2 1   
     2     2     3 1   
     3     2     4 1   
     4     4     5 1   
     5     4     7 1   
     6     4    26 1   
     7     5     6 1   
     8     5    27 1   
     9     5    28 1   
    10     6     9 1   
    11     6    29 1   
    12     6    30 1   
    13     7     8 1   
    14     7    31 1   
    15     7    32 1   
    16     8     9 1   
    17     8    33 1   
    18     8    34 1   
    19     9    10 1   
    20     9    12 1   
    21    10    11 3   
    22    12    13 ar  
    23    12    19 ar  
    24    13    14 ar  
    25    13    35 1   
    26    14    15 ar  
    27    14    36 1   
    28    15    16 1   
    29    15    18 ar  
    30    16    17 1   
    31    17    37 1   
    32    17    38 1   
    33    17    39 1   
    34    18    19 ar  
    35    18    20 1   
    36    19    40 1   
    37    20    21 1   
    38    21    22 1   
    39    21    25 1   
    40    21    41 1   
    41    22    23 1   
    42    22    42 1   
    43    22    43 1   
    44    23    24 1   
    45    23    44 1   
    46    23    45 1   
    47    24    25 1   
    48    24    46 1   
    49    24    47 1   
    50    25    48 1   
    51    25    49 1   
@<TRIPOS>SUBSTRUCTURE
     1 CIO         1 TEMP              0 ****  ****    0 ROOT
