@<TRIPOS>MOLECULE
CIO
   49    51     1     0     0
SMALL
bcc


@<TRIPOS>ATOM
      1 O25         -0.4880    -1.5290    -6.3620 o          1 CIO      -0.838800
      2 C23          0.0360    -0.4750    -5.9470 c          1 CIO       0.932600
      3 O24          0.2310     0.5600    -6.6150 o          1 CIO      -0.838800
      4 C4           0.5000    -0.4780    -4.4750 c6         1 CIO      -0.190700
      5 C5           0.9660     0.8810    -3.9720 c6         1 CIO      -0.057400
      6 C6           1.4470     0.8180    -2.5270 c6         1 CIO      -0.064400
      7 C3          -0.5770    -1.0420    -3.5490 c6         1 CIO      -0.057400
      8 C2          -0.1180    -1.0950    -2.0980 c6         1 CIO      -0.064400
      9 C1           0.3740     0.2720    -1.5680 c6         1 CIO       0.059400
     10 C21         -0.7530     1.2130    -1.5730 c1         1 CIO       0.247700
     11 N22         -1.6410     1.9470    -1.5750 n1         1 CIO      -0.414800
     12 C7           0.8470     0.1410    -0.1230 ca         1 CIO      -0.057300
     13 C8           2.1620     0.3210     0.2520 ca         1 CIO      -0.120000
     14 C9           2.5460     0.1610     1.5850 ca         1 CIO      -0.192000
     15 C10          1.6190    -0.1700     2.5560 ca         1 CIO       0.095100
     16 O11          1.8910    -0.3380     3.8620 os         1 CIO      -0.302900
     17 C12          3.2280    -0.1790     4.2880 c3         1 CIO       0.125700
     18 C13          0.2690    -0.3530     2.1840 ca         1 CIO       0.118100
     19 C20         -0.0930    -0.2000     0.8580 ca         1 CIO      -0.185000
     20 O14         -0.5630    -0.6890     3.1830 os         1 CIO      -0.312900
     21 C15         -1.9660    -0.7840     2.9420 c5         1 CIO       0.145100
     22 C16         -2.6010     0.5950     2.7860 c5         1 CIO      -0.093900
     23 C17         -2.6510     1.1600     4.2140 c5         1 CIO      -0.073400
     24 C18         -2.6100    -0.0650     5.1570 c5         1 CIO      -0.073400
     25 C19         -2.5880    -1.2900     4.2340 c5         1 CIO      -0.093900
     26 H4           1.3600    -1.1630    -4.4200 hc         1 CIO       0.024700
     27 H51          0.1580     1.6140    -4.0700 hc         1 CIO       0.050950
     28 H52          1.7850     1.2530    -4.5900 hc         1 CIO       0.050950
     29 H61          1.7850     1.8000    -2.1900 hc         1 CIO       0.031950
     30 H62          2.3080     0.1460    -2.4700 hc         1 CIO       0.031950
     31 H31         -0.8550    -2.0470    -3.8690 hc         1 CIO       0.050950
     32 H32         -1.4850    -0.4320    -3.6240 hc         1 CIO       0.050950
     33 H21          0.7230    -1.7870    -1.9940 hc         1 CIO       0.031950
     34 H22         -0.9180    -1.4760    -1.4590 hc         1 CIO       0.031950
     35 H8           2.9220     0.5880    -0.4690 ha         1 CIO       0.139000
     36 H9           3.5870     0.3080     1.8410 ha         1 CIO       0.129000
     37 H121         3.2330    -0.3490     5.3620 h1         1 CIO       0.033700
     38 H122         3.8970    -0.9030     3.8150 h1         1 CIO       0.033700
     39 H123         3.6040     0.8280     4.0910 h1         1 CIO       0.033700
     40 H20         -1.1260    -0.3370     0.5640 ha         1 CIO       0.144000
     41 H15         -2.1580    -1.4540     2.0970 h1         1 CIO       0.055700
     42 H161        -2.0750     1.2460     2.0860 hc         1 CIO       0.054700
     43 H162        -3.6090     0.4540     2.3890 hc         1 CIO       0.054700
     44 H171        -3.5460     1.7640     4.3640 hc         1 CIO       0.041200
     45 H172        -1.8000     1.8170     4.3970 hc         1 CIO       0.041200
     46 H181        -3.4630    -0.0910     5.8350 hc         1 CIO       0.041200
     47 H182        -1.7140    -0.0410     5.7780 hc         1 CIO       0.041200
     48 H191        -3.6050    -1.6210     4.0080 hc         1 CIO       0.054700
     49 H192        -2.0560    -2.1470     4.6490 hc         1 CIO       0.054700
@<TRIPOS>BOND
     1     1     2 1   
     2     2     3 1   
     3     2     4 1   
     4     4     5 1   
     5     4     7 1   
     6     4    26 1   
     7     5     6 1   
     8     5    27 1   
     9     5    28 1   
    10     6     9 1   
    11     6    29 1   
    12     6    30 1   
    13     7     8 1   
    14     7    31 1   
    15     7    32 1   
    16     8     9 1   
    17     8    33 1   
    18     8    34 1   
    19     9    10 1   
    20     9    12 1   
    21    10    11 3   
    22    12    13 ar  
    23    12    19 ar  
    24    13    14 ar  
    25    13    35 1   
    26    14    15 ar  
    27    14    36 1   
    28    15    16 1   
    29    15    18 ar  
    30    16    17 1   
    31    17    37 1   
    32    17    38 1   
    33    17    39 1   
    34    18    19 ar  
    35    18    20 1   
    36    19    40 1   
    37    20    21 1   
    38    21    22 1   
    39    21    25 1   
    40    21    41 1   
    41    22    23 1   
    42    22    42 1   
    43    22    43 1   
    44    23    24 1   
    45    23    44 1   
    46    23    45 1   
    47    24    25 1   
    48    24    46 1   
    49    24    47 1   
    50    25    48 1   
    51    25    49 1   
@<TRIPOS>SUBSTRUCTURE
     1 CIO         1 TEMP              0 ****  ****    0 ROOT
