@<TRIPOS>MOLECULE
CIP
   28    29     1     0     0
SMALL
No Charge or Current Charge


@<TRIPOS>ATOM
      1 C1           0.3440    -1.0570    -0.4190 c5         1 CIP       0.202300
      2 C2          -1.1460    -0.6790    -0.1120 c5         1 CIP      -0.087700
      3 C3          -1.4350    -0.5940     1.4160 c6         1 CIP       0.202300
      4 C4          -0.4130     0.3300     2.1560 c6         1 CIP       0.107300
      5 C5           1.0420    -0.1750     1.8890 c6         1 CIP       0.101300
      6 C6           1.3500    -0.1390     0.3610 c6         1 CIP       0.154300
      7 C7          -1.3690     0.6270    -0.9610 c5         1 CIP      -0.445400
      8 O1           0.4840    -0.9060    -1.8590 os         1 CIP      -0.539400
      9 O3          -2.7680    -0.1360     1.6660 oh         1 CIP      -0.708000
     10 O4          -0.7090     0.3510     3.5710 oh         1 CIP      -0.729000
     11 O5           2.0170     0.6240     2.5940 oh         1 CIP      -0.728000
     12 O6           2.7150    -0.5350     0.1630 oh         1 CIP      -0.697000
     13 P           -0.4010     0.2830    -2.4810 p5         1 CIP       1.298800
     14 O1P         -1.2210    -0.0100    -3.6860 o          1 CIP      -0.541000
     15 O2P          0.6990     1.4210    -2.5940 oh         1 CIP      -0.747400
     16 H1           0.5450    -2.1040    -0.1480 h1         1 CIP       0.094700
     17 H2          -1.8020    -1.4810    -0.4760 hc         1 CIP       0.085700
     18 H3          -1.3200    -1.6070     1.8310 h1         1 CIP       0.042700
     19 H4          -0.5070     1.3460     1.7420 h1         1 CIP       0.059700
     20 H5           1.1080    -1.2220     2.2260 h1         1 CIP       0.057700
     21 H6           1.2250     0.9030     0.0320 h1         1 CIP       0.047700
     22 H71         -0.9800     1.5410    -0.5040 hc         1 CIP       0.102700
     23 H72         -2.4170     0.7910    -1.2280 hc         1 CIP       0.102700
     24 HO3         -2.7520     0.1320     2.6160 ho         1 CIP       0.523000
     25 HO4         -0.4460     1.2410     3.9100 ho         1 CIP       0.518000
     26 HO5          1.8670     0.4640     3.5560 ho         1 CIP       0.517000
     27 HO6          3.1790    -0.1690     0.9560 ho         1 CIP       0.518000
     28 HOP2         1.4110     0.8900    -2.1900 ho         1 CIP       0.488000
@<TRIPOS>BOND
     1     1     2 1   
     2     1     6 1   
     3     1     8 1   
     4     1    16 1   
     5     2     3 1   
     6     2     7 1   
     7     2    17 1   
     8     3     4 1   
     9     3     9 1   
    10     3    18 1   
    11     4     5 1   
    12     4    10 1   
    13     4    19 1   
    14     5     6 1   
    15     5    11 1   
    16     5    20 1   
    17     6    12 1   
    18     6    21 1   
    19     7    13 1   
    20     7    22 1   
    21     7    23 1   
    22     8    13 1   
    23     9    24 1   
    24    10    25 1   
    25    11    26 1   
    26    12    27 1   
    27    13    14 2   
    28    13    15 1   
    29    15    28 1   
@<TRIPOS>SUBSTRUCTURE
     1 CIP         1 TEMP              0 ****  ****    0 ROOT
