@<TRIPOS>MOLECULE
CIP
   28    29     1     0     0
SMALL
abcg2


@<TRIPOS>ATOM
      1 C1           0.4040    -1.0320    -0.2600 c5         1 CIP       0.202300
      2 C2          -1.0690    -0.6450    -0.0510 c5         1 CIP      -0.087700
      3 C3          -1.4400    -0.4820     1.4170 c6         1 CIP       0.202300
      4 C4          -0.4420     0.3820     2.1770 c6         1 CIP       0.107300
      5 C5           0.9630    -0.1880     2.0160 c6         1 CIP       0.101300
      6 C6           1.3640    -0.1700     0.5440 c6         1 CIP       0.154300
      7 C7          -1.3020     0.5800    -0.9430 c5         1 CIP      -0.445400
      8 O1           0.6680    -0.8980    -1.6610 os         1 CIP      -0.539400
      9 O3          -2.7420     0.0400     1.4740 oh         1 CIP      -0.708000
     10 O4          -0.8540     0.3880     3.5250 oh         1 CIP      -0.729000
     11 O5           1.9120     0.5850     2.7200 oh         1 CIP      -0.728000
     12 O6           2.6590    -0.6730     0.3490 oh         1 CIP      -0.697000
     13 P           -0.3110     0.1680    -2.4000 p5         1 CIP       1.298800
     14 O1P         -0.9620    -0.4020    -3.6030 o          1 CIP      -0.541000
     15 O2P          0.5790     1.4720    -2.6780 oh         1 CIP      -0.747400
     16 H1           0.5650    -2.0820    -0.0010 h1         1 CIP       0.094700
     17 H2          -1.6760    -1.4640    -0.4490 hc         1 CIP       0.085700
     18 H3          -1.4060    -1.4860     1.8700 h1         1 CIP       0.042700
     19 H4          -0.4590     1.4050     1.7690 h1         1 CIP       0.059700
     20 H5           0.9710    -1.2280     2.3720 h1         1 CIP       0.057700
     21 H6           1.2980     0.8730     0.1910 h1         1 CIP       0.047700
     22 H71         -0.9470     1.5100    -0.4950 hc         1 CIP       0.102700
     23 H72         -2.3470     0.7160    -1.2130 hc         1 CIP       0.102700
     24 HO3         -2.9730     0.1620     2.4020 ho         1 CIP       0.523000
     25 HO4         -0.4000     1.1020     3.9840 ho         1 CIP       0.518000
     26 HO5          2.0540     0.1960     3.5870 ho         1 CIP       0.517000
     27 HO6          3.2450    -0.2070     0.9550 ho         1 CIP       0.518000
     28 HOP2         0.9490     1.5090    -3.5710 ho         1 CIP       0.488000
@<TRIPOS>BOND
     1     1     2 1   
     2     1     6 1   
     3     1     8 1   
     4     1    16 1   
     5     2     3 1   
     6     2     7 1   
     7     2    17 1   
     8     3     4 1   
     9     3     9 1   
    10     3    18 1   
    11     4     5 1   
    12     4    10 1   
    13     4    19 1   
    14     5     6 1   
    15     5    11 1   
    16     5    20 1   
    17     6    12 1   
    18     6    21 1   
    19     7    13 1   
    20     7    22 1   
    21     7    23 1   
    22     8    13 1   
    23     9    24 1   
    24    10    25 1   
    25    11    26 1   
    26    12    27 1   
    27    13    14 2   
    28    13    15 1   
    29    15    28 1   
@<TRIPOS>SUBSTRUCTURE
     1 CIP         1 TEMP              0 ****  ****    0 ROOT
