@<TRIPOS>MOLECULE
CIQ
   84    88     1     0     0
SMALL
No Charge or Current Charge


@<TRIPOS>ATOM
      1 N1          -2.2600    -1.2340    -0.6140 nb         1 CIQ      -0.292000
      2 C2          -1.3050    -2.1710    -0.4810 ca         1 CIQ       0.186300
      3 N3           0.0200    -1.9450    -0.3640 nb         1 CIQ      -0.222000
      4 C4           0.4400    -0.6650    -0.3820 ca         1 CIQ       0.076000
      5 C5          -0.4870     0.3960    -0.5170 ca         1 CIQ      -0.181000
      6 C6          -1.8570     0.0480    -0.6310 ca         1 CIQ       0.410900
      7 CAA          0.9750     4.4660    -0.5550 c3         1 CIQ       0.143900
      8 CAB         -8.7500     1.4440     2.3080 c3         1 CIQ      -0.091600
      9 CAC         -9.2000     2.7720     0.2150 c3         1 CIQ      -0.091600
     10 CAD          1.8090    -0.3760    -0.2640 ca         1 CIQ      -0.192000
     11 CAE         -0.0300     1.7360    -0.5320 ca         1 CIQ      -0.150000
     12 CAF         -1.4010    -6.6040    -0.2410 c6         1 CIQ      -0.074400
     13 CAG         -1.9900    -5.7820     0.9320 c6         1 CIQ      -0.072900
     14 CAH         -1.6980    -5.9270    -1.6020 c6         1 CIQ      -0.072900
     15 CAI         10.8360     0.6580     0.3350 c5         1 CIQ      -0.079400
     16 CAJ         10.2750     1.8870     1.1190 c5         1 CIQ      -0.079400
     17 CAK          5.9920     0.9640     0.0760 c3         1 CIQ      -0.083400
     18 CAL          4.6320     0.2510    -0.0230 c3         1 CIQ       0.158600
     19 CAM         -1.4750    -4.3210     0.9080 c6         1 CIQ      -0.068400
     20 CAN         -1.1830    -4.4670    -1.6270 c6         1 CIQ      -0.068400
     21 CAO         -5.0890     1.9760    -1.1680 c6         1 CIQ      -0.093400
     22 CAP         -4.6410     0.6500     0.9170 c6         1 CIQ      -0.093400
     23 CAQ          9.6370    -0.3230     0.2840 c5         1 CIQ       0.156300
     24 CAR          8.7830     1.5300     1.3620 c5         1 CIQ       0.156300
     25 CAS          7.1640    -0.0260     0.2360 c3         1 CIQ       0.171800
     26 CAT         -6.6050     1.7980    -0.9250 c6         1 CIQ       0.171800
     27 CAU         -6.1660     0.5010     1.1180 c6         1 CIQ       0.171800
     28 NAX         -2.8570     1.0130    -0.7660 nu         1 CIQ      -0.922100
     29 CBA          1.3500     2.0190    -0.4130 ca         1 CIQ       0.106100
     30 CBB          2.2730     0.9570    -0.2790 ca         1 CIQ       0.162100
     31 CBG         -8.4100     1.5710     0.7990 c3         1 CIQ       0.190500
     32 CBH         -4.3040     0.7890    -0.5810 c6         1 CIQ       0.238500
     33 CBI         -1.7780    -3.6340    -0.4540 c6         1 CIQ      -0.099000
     34 NBJ          8.4980     0.6140     0.2350 n3         1 CIQ      -0.714600
     35 NBK         -6.9350     1.6440     0.5290 n3         1 CIQ      -0.727600
     36 HAA          1.5700     5.3880    -0.5380 h1         1 CIQ       0.040367
     37 HAAA         0.4240     4.4350    -1.5030 h1         1 CIQ       0.040367
     38 HAAB         0.2550     4.5110     0.2720 h1         1 CIQ       0.040367
     39 HAB         -8.2670     2.2420     2.8850 hc         1 CIQ       0.037700
     40 HABA        -9.8320     1.5120     2.4720 hc         1 CIQ       0.037700
     41 HABB        -8.4340     0.4760     2.7120 hc         1 CIQ       0.037700
     42 HAC         -8.7690     3.7230     0.5520 hc         1 CIQ       0.037700
     43 HACA        -9.2060     2.7560    -0.8800 hc         1 CIQ       0.037700
     44 HACB       -10.2490     2.7420     0.5340 hc         1 CIQ       0.037700
     45 HAD          2.5010    -1.2070    -0.1610 ha         1 CIQ       0.140000
     46 HAE         -0.7410     2.5470    -0.6350 ha         1 CIQ       0.111000
     47 HAF         -0.3150    -6.7100    -0.1100 hc         1 CIQ       0.037700
     48 HAFA        -1.8180    -7.6200    -0.2310 hc         1 CIQ       0.037700
     49 HAG         -3.0870    -5.7890     0.8750 hc         1 CIQ       0.036950
     50 HAGA        -1.7240    -6.2550     1.8880 hc         1 CIQ       0.036950
     51 HAH         -1.2300    -6.5010    -2.4130 hc         1 CIQ       0.036950
     52 HAHA        -2.7800    -5.9420    -1.7940 hc         1 CIQ       0.036950
     53 HAIA        11.7090     0.2100     0.8220 hc         1 CIQ       0.046950
     54 HAJ         10.8060     2.0590     2.0620 hc         1 CIQ       0.046950
     55 HAJA        10.3690     2.8030     0.5240 hc         1 CIQ       0.046950
     56 HAK          6.1500     1.5640    -0.8270 hc         1 CIQ       0.064200
     57 HAKA         5.9700     1.6510     0.9290 hc         1 CIQ       0.064200
     58 HAL          4.6330    -0.4220    -0.8910 h1         1 CIQ       0.037700
     59 HALA         4.4630    -0.3430     0.8850 h1         1 CIQ       0.037700
     60 HAM         -1.9420    -3.7530     1.7240 hc         1 CIQ       0.048450
     61 HAMA        -0.3930    -4.3130     1.1040 hc         1 CIQ       0.048450
     62 HAN         -0.0850    -4.4680    -1.5710 hc         1 CIQ       0.048450
     63 HANA        -1.4450    -3.9990    -2.5860 hc         1 CIQ       0.048450
     64 HAO         -4.8980     2.0580    -2.2460 hc         1 CIQ       0.053450
     65 HAOA        -4.7570     2.9180    -0.7120 hc         1 CIQ       0.053450
     66 HAP         -4.2840     1.5290     1.4700 hc         1 CIQ       0.053450
     67 HAPA        -4.1300    -0.2220     1.3440 hc         1 CIQ       0.053450
     68 HAQ          9.6800    -0.9820    -0.5940 h1         1 CIQ       0.035950
     69 HAQA         9.6000    -0.9530     1.1850 h1         1 CIQ       0.035950
     70 HAR          8.6530     1.0220     2.3290 h1         1 CIQ       0.035950
     71 HARA         8.1460     2.4250     1.3580 h1         1 CIQ       0.035950
     72 HAS          7.0230    -0.5930     1.1670 h1         1 CIQ       0.029200
     73 HASA         7.1140    -0.7470    -0.5910 h1         1 CIQ       0.029200
     74 HAT         -7.0990     2.6800    -1.3520 h1         1 CIQ       0.034200
     75 HATA        -6.9590     0.9220    -1.4900 h1         1 CIQ       0.034200
     76 HAU         -6.4960    -0.4490     0.6730 h1         1 CIQ       0.034200
     77 HAUA        -6.3350     0.4270     2.2010 h1         1 CIQ       0.034200
     78 HNAX        -2.5270     1.9740    -0.7850 hn         1 CIQ       0.488000
     79 HBG         -8.8080     0.6700     0.3130 h1         1 CIQ       0.019700
     80 HBH         -4.6250    -0.1230    -1.1090 h1         1 CIQ       0.080700
     81 HBI         -2.8710    -3.6380    -0.5800 hc         1 CIQ       0.065700
     82 OAY          1.8330     3.3190    -0.4240 os         1 CIQ      -0.317100
     83 OAZ          3.6200     1.2620    -0.1640 os         1 CIQ      -0.324100
     84 HAI         11.1440     0.9500    -0.6760 hc         1 CIQ       0.046950
@<TRIPOS>BOND
     1     1     2 ar  
     2     1     6 ar  
     3     2     3 ar  
     4     2    33 1   
     5     3     4 ar  
     6     4     5 ar  
     7     4    10 ar  
     8     5     6 ar  
     9     5    11 ar  
    10     6    28 1   
    11     7    36 1   
    12     7    37 1   
    13     7    38 1   
    14     7    82 1   
    15     8    31 1   
    16     8    39 1   
    17     8    40 1   
    18     8    41 1   
    19     9    31 1   
    20     9    42 1   
    21     9    43 1   
    22     9    44 1   
    23    10    30 ar  
    24    10    45 1   
    25    11    29 ar  
    26    11    46 1   
    27    12    13 1   
    28    12    14 1   
    29    12    47 1   
    30    12    48 1   
    31    13    19 1   
    32    13    49 1   
    33    13    50 1   
    34    14    20 1   
    35    14    51 1   
    36    14    52 1   
    37    15    16 1   
    38    15    23 1   
    39    15    53 1   
    40    15    84 1   
    41    16    24 1   
    42    16    54 1   
    43    16    55 1   
    44    17    18 1   
    45    17    25 1   
    46    17    56 1   
    47    17    57 1   
    48    18    58 1   
    49    18    59 1   
    50    18    83 1   
    51    19    33 1   
    52    19    60 1   
    53    19    61 1   
    54    20    33 1   
    55    20    62 1   
    56    20    63 1   
    57    21    26 1   
    58    21    32 1   
    59    21    64 1   
    60    21    65 1   
    61    22    27 1   
    62    22    32 1   
    63    22    66 1   
    64    22    67 1   
    65    23    34 1   
    66    23    68 1   
    67    23    69 1   
    68    24    34 1   
    69    24    70 1   
    70    24    71 1   
    71    25    34 1   
    72    25    72 1   
    73    25    73 1   
    74    26    35 1   
    75    26    74 1   
    76    26    75 1   
    77    27    35 1   
    78    27    76 1   
    79    27    77 1   
    80    28    32 1   
    81    28    78 1   
    82    29    30 ar  
    83    29    82 1   
    84    30    83 1   
    85    31    35 1   
    86    31    79 1   
    87    32    80 1   
    88    33    81 1   
@<TRIPOS>SUBSTRUCTURE
     1 CIQ         1 TEMP              0 ****  ****    0 ROOT
