@<TRIPOS>MOLECULE
CIQ
   84    88     1     0     0
SMALL
bcc


@<TRIPOS>ATOM
      1 N1          -2.2170    -1.1180    -0.3410 nb         1 CIQ      -0.818000
      2 C2          -1.2580    -2.0490    -0.2430 ca         1 CIQ       0.712300
      3 N3           0.0300    -1.8270    -0.1790 nb         1 CIQ      -0.748000
      4 C4           0.4300    -0.5320    -0.2150 ca         1 CIQ       0.469600
      5 C5          -0.4780     0.5320    -0.3160 ca         1 CIQ      -0.311600
      6 C6          -1.8610     0.1570    -0.3780 ca         1 CIQ       0.739200
      7 CAA          1.0520     4.4630    -0.4390 c3         1 CIQ       0.120700
      8 CAB         -8.9110     0.9780     1.8060 c3         1 CIQ      -0.091600
      9 CAC         -8.9860     2.8920     0.2370 c3         1 CIQ      -0.091600
     10 CAD          1.8130    -0.2520    -0.1510 ca         1 CIQ      -0.275300
     11 CAE          0.0010     1.8610    -0.3550 ca         1 CIQ      -0.168000
     12 CAF         -1.1700    -6.3920    -0.1300 c6         1 CIQ      -0.074400
     13 CAG         -1.6690    -5.6480     1.1040 c6         1 CIQ      -0.072900
     14 CAH         -1.6400    -5.7090    -1.4090 c6         1 CIQ      -0.072900
     15 CAI         10.6540     0.3700     0.2080 c5         1 CIQ      -0.079400
     16 CAJ         10.1970     1.5320     1.1140 c5         1 CIQ      -0.079400
     17 CAK          5.9060     1.0520    -0.0030 c3         1 CIQ      -0.083400
     18 CAL          4.5480     0.3870    -0.0660 c3         1 CIQ       0.135400
     19 CAM         -1.2460    -4.1830     1.0770 c6         1 CIQ      -0.068400
     20 CAN         -1.2180    -4.2440    -1.4440 c6         1 CIQ      -0.068400
     21 CAO         -5.0140     1.9430    -1.1040 c6         1 CIQ      -0.093400
     22 CAP         -4.7720     0.5380     0.9310 c6         1 CIQ      -0.093400
     23 CAQ          9.3800    -0.4330    -0.0250 c5         1 CIQ       0.156300
     24 CAR          8.6690     1.3990     1.1720 c5         1 CIQ       0.156300
     25 CAS          7.0070     0.0020     0.0600 c3         1 CIQ       0.171800
     26 CAT         -6.5120     1.6970    -1.0100 c6         1 CIQ       0.171800
     27 CAU         -6.2830     0.3590     0.9360 c6         1 CIQ       0.171800
     28 NAX         -2.8250     1.0830    -0.4940 nu         1 CIQ      -0.866900
     29 CBA          1.3430     2.1230    -0.2880 ca         1 CIQ       0.106100
     30 CBB          2.2710     1.0390    -0.1820 ca         1 CIQ       0.162100
     31 CBG         -8.4140     1.4920     0.4580 c3         1 CIQ       0.190500
     32 CBH         -4.2450     0.7910    -0.4760 c6         1 CIQ       0.238500
     33 CBI         -1.7100    -3.4850    -0.2060 c6         1 CIQ      -0.099000
     34 NBJ          8.3330     0.5730     0.0230 n3         1 CIQ      -0.714600
     35 NBK         -6.9500     1.5180     0.3650 n3         1 CIQ      -0.727600
     36 HAA          1.6940     5.3400    -0.4490 h1         1 CIQ       0.040367
     37 HAAA         0.4760     4.4370    -1.3680 h1         1 CIQ       0.040367
     38 HAAB         0.3600     4.5430     0.4040 h1         1 CIQ       0.040367
     39 HAB         -8.4570     1.5300     2.6320 hc         1 CIQ       0.037700
     40 HABA        -9.9910     1.1170     1.8670 hc         1 CIQ       0.037700
     41 HABB        -8.7170    -0.0830     1.9550 hc         1 CIQ       0.037700
     42 HAC         -8.6350     3.5720     1.0160 hc         1 CIQ       0.037700
     43 HACA        -8.7200     3.3220    -0.7280 hc         1 CIQ       0.037700
     44 HACB       -10.0750     2.8630     0.2810 hc         1 CIQ       0.037700
     45 HAD          2.4860    -1.0940    -0.0790 ha         1 CIQ       0.158000
     46 HAE         -0.6930     2.6850    -0.4390 ha         1 CIQ       0.129000
     47 HAF         -0.0740    -6.4140    -0.1160 hc         1 CIQ       0.037700
     48 HAFA        -1.5030    -7.4330    -0.1080 hc         1 CIQ       0.037700
     49 HAG         -2.7620    -5.7140     1.1520 hc         1 CIQ       0.036950
     50 HAGA        -1.2920    -6.1240     2.0130 hc         1 CIQ       0.036950
     51 HAH         -1.2430    -6.2290    -2.2850 hc         1 CIQ       0.036950
     52 HAHA        -2.7320    -5.7770    -1.4780 hc         1 CIQ       0.036950
     53 HAIA        11.4400    -0.2360     0.6590 hc         1 CIQ       0.046950
     54 HAJ         10.6280     1.4700     2.1130 hc         1 CIQ       0.046950
     55 HAJA        10.4960     2.4930     0.6970 hc         1 CIQ       0.046950
     56 HAK          6.0540     1.6810    -0.8850 hc         1 CIQ       0.064200
     57 HAKA         5.9490     1.7020     0.8740 hc         1 CIQ       0.064200
     58 HAL          4.4740    -0.2560    -0.9510 h1         1 CIQ       0.037700
     59 HALA         4.3920    -0.2460     0.8150 h1         1 CIQ       0.037700
     60 HAM         -1.6500    -3.6600     1.9480 hc         1 CIQ       0.048450
     61 HAMA        -0.1570    -4.1130     1.1470 hc         1 CIQ       0.048450
     62 HAN         -0.1270    -4.1760    -1.4930 hc         1 CIQ       0.048450
     63 HANA        -1.6030    -3.7640    -2.3480 hc         1 CIQ       0.048450
     64 HAO         -4.7320     2.0640    -2.1520 hc         1 CIQ       0.053450
     65 HAOA        -4.7690     2.8780    -0.5890 hc         1 CIQ       0.053450
     66 HAP         -4.5110     1.3870     1.5700 hc         1 CIQ       0.053450
     67 HAPA        -4.2990    -0.3500     1.3530 hc         1 CIQ       0.053450
     68 HAQ          9.3700    -0.9630    -0.9800 h1         1 CIQ       0.035950
     69 HAQA         9.2520    -1.1880     0.7700 h1         1 CIQ       0.035950
     70 HAR          8.3660     0.9140     2.1150 h1         1 CIQ       0.035950
     71 HARA         8.1620     2.3650     1.1310 h1         1 CIQ       0.035950
     72 HAS          6.8670    -0.6210     0.9630 h1         1 CIQ       0.029200
     73 HASA         6.9060    -0.6730    -0.7960 h1         1 CIQ       0.029200
     74 HAT         -7.0300     2.5450    -1.4570 h1         1 CIQ       0.034200
     75 HATA        -6.7720     0.8170    -1.6260 h1         1 CIQ       0.034200
     76 HAU         -6.5480    -0.5710     0.4010 h1         1 CIQ       0.034200
     77 HAUA        -6.5970     0.2240     1.9700 h1         1 CIQ       0.034200
     78 HNAX        -2.5730     2.0510    -0.3870 hn         1 CIQ       0.432800
     79 HBG         -8.8280     0.8250    -0.3190 h1         1 CIQ       0.019700
     80 HBH         -4.4070    -0.1070    -1.0790 h1         1 CIQ       0.080700
     81 HBI         -2.8050    -3.4850    -0.2200 hc         1 CIQ       0.065700
     82 OAY          1.9030     3.3420    -0.3170 os         1 CIQ      -0.293900
     83 OAZ          3.5560     1.4040    -0.1230 os         1 CIQ      -0.300900
     84 HAI         11.0400     0.7500    -0.7380 hc         1 CIQ       0.046950
@<TRIPOS>BOND
     1     1     2 ar  
     2     1     6 ar  
     3     2     3 ar  
     4     2    33 1   
     5     3     4 ar  
     6     4     5 ar  
     7     4    10 ar  
     8     5     6 ar  
     9     5    11 ar  
    10     6    28 1   
    11     7    36 1   
    12     7    37 1   
    13     7    38 1   
    14     7    82 1   
    15     8    31 1   
    16     8    39 1   
    17     8    40 1   
    18     8    41 1   
    19     9    31 1   
    20     9    42 1   
    21     9    43 1   
    22     9    44 1   
    23    10    30 ar  
    24    10    45 1   
    25    11    29 ar  
    26    11    46 1   
    27    12    13 1   
    28    12    14 1   
    29    12    47 1   
    30    12    48 1   
    31    13    19 1   
    32    13    49 1   
    33    13    50 1   
    34    14    20 1   
    35    14    51 1   
    36    14    52 1   
    37    15    16 1   
    38    15    23 1   
    39    15    53 1   
    40    15    84 1   
    41    16    24 1   
    42    16    54 1   
    43    16    55 1   
    44    17    18 1   
    45    17    25 1   
    46    17    56 1   
    47    17    57 1   
    48    18    58 1   
    49    18    59 1   
    50    18    83 1   
    51    19    33 1   
    52    19    60 1   
    53    19    61 1   
    54    20    33 1   
    55    20    62 1   
    56    20    63 1   
    57    21    26 1   
    58    21    32 1   
    59    21    64 1   
    60    21    65 1   
    61    22    27 1   
    62    22    32 1   
    63    22    66 1   
    64    22    67 1   
    65    23    34 1   
    66    23    68 1   
    67    23    69 1   
    68    24    34 1   
    69    24    70 1   
    70    24    71 1   
    71    25    34 1   
    72    25    72 1   
    73    25    73 1   
    74    26    35 1   
    75    26    74 1   
    76    26    75 1   
    77    27    35 1   
    78    27    76 1   
    79    27    77 1   
    80    28    32 1   
    81    28    78 1   
    82    29    30 ar  
    83    29    82 1   
    84    30    83 1   
    85    31    35 1   
    86    31    79 1   
    87    32    80 1   
    88    33    81 1   
@<TRIPOS>SUBSTRUCTURE
     1 CIQ         1 TEMP              0 ****  ****    0 ROOT
