@<TRIPOS>MOLECULE
CIR
   24    23     1     0     0
SMALL
bcc


@<TRIPOS>ATOM
      1 C1           3.5280     0.3250    -0.0890 c          1 CIR       0.932600
      2 O1           4.2610    -0.0200     0.8590 o          1 CIR      -0.835300
      3 O2           3.6820     1.3260    -0.8190 o          1 CIR      -0.835300
      4 C2           2.2700    -0.5280    -0.3650 c3         1 CIR       0.019500
      5 N2           2.4200    -1.8630     0.1940 n8         1 CIR      -0.880800
      6 C3           1.0350     0.2390     0.1380 c3         1 CIR      -0.096400
      7 C4          -0.2830    -0.3780    -0.3140 c3         1 CIR      -0.097400
      8 C5          -1.4880     0.4020     0.1900 c3         1 CIR       0.106000
      9 N6          -2.7110    -0.2150    -0.2780 ns         1 CIR      -0.584900
     10 C7          -3.9320     0.1990     0.1360 c          1 CIR       0.762100
     11 O7          -4.0770     1.0510     1.0080 o          1 CIR      -0.649100
     12 N8          -4.9900    -0.3780    -0.5090 nt         1 CIR      -0.665000
     13 H2           2.1690    -0.6200    -1.4540 h1         1 CIR       0.042700
     14 HN21         2.7790    -1.7690     1.1370 hn         1 CIR       0.321300
     15 HN22         1.5220    -2.3220     0.2700 hn         1 CIR       0.321300
     16 H31          1.0670     0.2890     1.2320 hc         1 CIR       0.047700
     17 H32          1.0840     1.2690    -0.2250 hc         1 CIR       0.047700
     18 H41         -0.3020    -0.4120    -1.4090 hc         1 CIR       0.030700
     19 H42         -0.3690    -1.4120     0.0320 hc         1 CIR       0.030700
     20 H51         -1.4820     0.4160     1.2820 h1         1 CIR       0.050200
     21 H52         -1.4150     1.4440    -0.1410 h1         1 CIR       0.050200
     22 HN6         -2.6460    -0.7970    -1.0980 hn         1 CIR       0.302500
     23 HN81        -4.8580    -1.2550    -0.9860 hn         1 CIR       0.290000
     24 HN82        -5.8830    -0.2920    -0.0520 hn         1 CIR       0.290000
@<TRIPOS>BOND
     1     1     2 1   
     2     1     3 1   
     3     1     4 1   
     4     4     5 1   
     5     4     6 1   
     6     4    13 1   
     7     5    14 1   
     8     5    15 1   
     9     6     7 1   
    10     6    16 1   
    11     6    17 1   
    12     7     8 1   
    13     7    18 1   
    14     7    19 1   
    15     8     9 1   
    16     8    20 1   
    17     8    21 1   
    18     9    10 1   
    19     9    22 1   
    20    10    11 2   
    21    10    12 1   
    22    12    23 1   
    23    12    24 1   
@<TRIPOS>SUBSTRUCTURE
     1 CIR         1 TEMP              0 ****  ****    0 ROOT
