@<TRIPOS>MOLECULE
CIR
   24    23     1     0     0
SMALL
No Charge or Current Charge


@<TRIPOS>ATOM
      1 C1           3.6240     0.4250    -0.1270 c          1 CIR       0.722000
      2 O1           4.0230     0.5550     1.0250 o          1 CIR      -0.730000
      3 O2           4.2130     0.8940    -1.0930 o          1 CIR      -0.730000
      4 C2           2.3330    -0.4610    -0.3890 c3         1 CIR       0.019500
      5 N2           2.4040    -1.8990     0.0590 n8         1 CIR      -0.991200
      6 C3           1.0670     0.2200     0.1990 c3         1 CIR      -0.096400
      7 C4          -0.2750    -0.3860    -0.2820 c3         1 CIR      -0.097400
      8 C5          -1.5020     0.3680     0.2690 c3         1 CIR       0.106000
      9 N6          -2.7540    -0.2200    -0.2050 ns         1 CIR      -0.517900
     10 C7          -3.9920     0.2340     0.1430 c          1 CIR       0.628100
     11 O7          -4.1950     1.1750     0.8840 o          1 CIR      -0.649100
     12 N8          -4.9910    -0.4630    -0.4160 nt         1 CIR      -0.598000
     13 H2           2.2010    -0.4810    -1.4800 h1         1 CIR       0.042700
     14 HN21         2.6020    -1.9180     1.0670 hn         1 CIR       0.376500
     15 HN22         1.4700    -2.3170    -0.0170 hn         1 CIR       0.376500
     16 H31          1.1110     0.1920     1.2960 hc         1 CIR       0.047700
     17 H32          1.0860     1.2800    -0.0830 hc         1 CIR       0.047700
     18 H41         -0.3060    -0.3660    -1.3790 hc         1 CIR       0.030700
     19 H42         -0.3400    -1.4370     0.0250 hc         1 CIR       0.030700
     20 H51         -1.4890     0.3370     1.3670 h1         1 CIR       0.050200
     21 H52         -1.4620     1.4190    -0.0470 h1         1 CIR       0.050200
     22 HN6         -2.7100    -1.0130    -0.8310 hn         1 CIR       0.302500
     23 HN81        -4.7930    -1.2400    -1.0270 hn         1 CIR       0.290000
     24 HN82        -5.9440    -0.2000    -0.2160 hn         1 CIR       0.290000
@<TRIPOS>BOND
     1     1     2 1   
     2     1     3 1   
     3     1     4 1   
     4     4     5 1   
     5     4     6 1   
     6     4    13 1   
     7     5    14 1   
     8     5    15 1   
     9     6     7 1   
    10     6    16 1   
    11     6    17 1   
    12     7     8 1   
    13     7    18 1   
    14     7    19 1   
    15     8     9 1   
    16     8    20 1   
    17     8    21 1   
    18     9    10 1   
    19     9    22 1   
    20    10    11 2   
    21    10    12 1   
    22    12    23 1   
    23    12    24 1   
@<TRIPOS>SUBSTRUCTURE
     1 CIR         1 TEMP              0 ****  ****    0 ROOT
