@<TRIPOS>MOLECULE
CIS
  151   151     1     0     0
SMALL
No Charge or Current Charge


@<TRIPOS>ATOM
      1 C17         -1.4820    15.8740    -1.4450 c3         1 CIS      -0.088100
      2 C16         -1.2900    14.4590    -0.8680 c3         1 CIS      -0.075400
      3 C15          0.0270    13.7930    -1.3240 c3         1 CIS      -0.076400
      4 C14          0.2140    12.3700    -0.7530 c3         1 CIS      -0.074400
      5 C13          1.5310    11.7020    -1.2080 c3         1 CIS      -0.074400
      6 C12          1.7080    10.2730    -0.6480 c3         1 CIS      -0.074400
      7 C11          3.0250     9.6040    -1.0980 c3         1 CIS      -0.075400
      8 C10          3.1950     8.1730    -0.5420 c3         1 CIS      -0.073400
      9 C9           4.5170     7.5050    -0.9790 c3         1 CIS      -0.075400
     10 C8           4.6900     6.0790    -0.4120 c3         1 CIS      -0.073400
     11 C7           6.0230     5.4190    -0.8290 c3         1 CIS      -0.075400
     12 C6           6.2080     4.0050    -0.2370 c3         1 CIS      -0.073400
     13 C5           7.5440     3.3480    -0.6390 c3         1 CIS      -0.041200
     14 C4           7.7060     1.9790    -0.0140 c2         1 CIS      -0.213200
     15 C3           7.6620     0.8120    -0.6790 c2         1 CIS      -0.247200
     16 C2           7.7620    -0.5680    -0.0600 c3         1 CIS       0.189500
     17 O1           9.0640    -0.6860     0.5200 oh         1 CIS      -0.637000
     18 C1           6.6650    -0.8350     1.0150 c3         1 CIS       0.080700
     19 C            6.6490    -2.3050     1.5070 c3         1 CIS       0.158600
     20 O            6.2540    -3.1620     0.4140 os         1 CIS      -0.465000
     21 C43          6.1840    -4.5690     0.7090 c6         1 CIS       0.354300
     22 C44          5.6420    -5.3560    -0.5270 c6         1 CIS       0.145300
     23 O3           4.3530    -4.8450    -0.9580 oh         1 CIS      -0.683000
     24 O6           7.4960    -5.0470     1.0500 os         1 CIS      -0.469000
     25 C47          7.5040    -6.4410     1.4480 c6         1 CIS       0.148300
     26 C48          8.9340    -6.8180     1.9620 c3         1 CIS       0.164600
     27 O7           9.3560    -6.0310     3.0940 oh         1 CIS      -0.714000
     28 C46          7.0230    -7.3520     0.2710 c6         1 CIS       0.113300
     29 O5           7.9400    -7.3520    -0.8490 oh         1 CIS      -0.689000
     30 C45          5.6030    -6.8920    -0.2030 c6         1 CIS       0.243300
     31 O4           5.2340    -7.6420    -1.3850 os         1 CIS      -0.568700
     32 S            4.1600    -8.8700    -1.2100 s6         1 CIS       1.495300
     33 O10          2.9120    -8.2070    -0.8100 o          1 CIS      -0.707200
     34 O9           4.1190    -9.4930    -2.5410 o          1 CIS      -0.707200
     35 O8           4.7530    -9.7120    -0.1630 o          1 CIS      -0.707200
     36 N            5.3260    -0.4260     0.5460 ns         1 CIS      -0.500900
     37 C18          4.5420     0.5420     1.1310 c          1 CIS       0.603100
     38 O2           4.8800     1.1470     2.1390 o          1 CIS      -0.618100
     39 C19          3.2210     0.8230     0.4080 c3         1 CIS      -0.157400
     40 C20          2.0180     0.2340     1.1820 c3         1 CIS      -0.065400
     41 C21          0.6750     0.4090     0.4380 c3         1 CIS      -0.076400
     42 C22         -0.5230    -0.1890     1.2080 c3         1 CIS      -0.073400
     43 C23         -1.8560    -0.0740     0.4360 c3         1 CIS      -0.074400
     44 C24         -3.0530    -0.6840     1.1990 c3         1 CIS      -0.074400
     45 C25         -4.3740    -0.6210     0.4010 c3         1 CIS      -0.074400
     46 C26         -5.5680    -1.2440     1.1570 c3         1 CIS      -0.074400
     47 C27         -6.8780    -1.2250     0.3390 c3         1 CIS      -0.074400
     48 C28         -8.0690    -1.8610     1.0900 c3         1 CIS      -0.074400
     49 C29         -9.3700    -1.8780     0.2570 c3         1 CIS      -0.075400
     50 C30        -10.5580    -2.5220     1.0060 c3         1 CIS      -0.073400
     51 C31        -11.8520    -2.5690     0.1670 c3         1 CIS      -0.044200
     52 C32        -12.9970    -3.2170     0.9230 c2         1 CIS      -0.212200
     53 C33        -14.0180    -2.5950     1.5400 c2         1 CIS      -0.220200
     54 C34        -14.2440    -1.0980     1.6520 c3         1 CIS      -0.041200
     55 C35        -15.2430    -0.5850     0.5940 c3         1 CIS      -0.073400
     56 C36        -15.4970     0.9370     0.6830 c3         1 CIS      -0.075400
     57 C37        -16.5000     1.4440    -0.3770 c3         1 CIS      -0.074400
     58 C38        -16.7520     2.9660    -0.2950 c3         1 CIS      -0.074400
     59 C39        -17.7510     3.4710    -1.3600 c3         1 CIS      -0.075400
     60 C40        -17.9990     4.9930    -1.2840 c3         1 CIS      -0.075400
     61 C41        -18.9920     5.4960    -2.3510 c3         1 CIS      -0.088100
     62 H171        -1.5050    15.8460    -2.5420 hc         1 CIS       0.030700
     63 H172        -2.4280    16.3050    -1.0940 hc         1 CIS       0.030700
     64 H173        -0.6660    16.5360    -1.1310 hc         1 CIS       0.030700
     65 H161        -1.3090    14.5150     0.2270 hc         1 CIS       0.036200
     66 H162        -2.1380    13.8320    -1.1710 hc         1 CIS       0.036200
     67 H151         0.0470    13.7460    -2.4200 hc         1 CIS       0.036700
     68 H152         0.8740    14.4190    -1.0150 hc         1 CIS       0.036700
     69 H141         0.1940    12.4160     0.3440 hc         1 CIS       0.036700
     70 H142        -0.6330    11.7440    -1.0620 hc         1 CIS       0.036700
     71 H131         1.5560    11.6640    -2.3040 hc         1 CIS       0.036700
     72 H132         2.3780    12.3220    -0.8880 hc         1 CIS       0.036700
     73 H121         1.6800    10.3110     0.4490 hc         1 CIS       0.037200
     74 H122         0.8610     9.6540    -0.9690 hc         1 CIS       0.037200
     75 H111         3.0570     9.5700    -2.1940 hc         1 CIS       0.036200
     76 H112         3.8720    10.2200    -0.7710 hc         1 CIS       0.036200
     77 H101         3.1540     8.2060     0.5540 hc         1 CIS       0.037700
     78 H102         2.3520     7.5540    -0.8760 hc         1 CIS       0.037700
     79 H91          4.5570     7.4650    -2.0750 hc         1 CIS       0.036200
     80 H92          5.3600     8.1280    -0.6510 hc         1 CIS       0.036200
     81 H81          4.6370     6.1200     0.6830 hc         1 CIS       0.038700
     82 H82          3.8560     5.4520    -0.7500 hc         1 CIS       0.038700
     83 H71          6.0700     5.3620    -1.9240 hc         1 CIS       0.035700
     84 H72          6.8560     6.0560    -0.5050 hc         1 CIS       0.035700
     85 H61          6.1510     4.0630     0.8570 hc         1 CIS       0.042700
     86 H62          5.3800     3.3630    -0.5660 hc         1 CIS       0.042700
     87 H51          7.5900     3.2750    -1.7330 hc         1 CIS       0.041700
     88 H52          8.3760     3.9950    -0.3330 hc         1 CIS       0.041700
     89 H4           7.8450     1.9940     1.0700 ha         1 CIS       0.170000
     90 H3           7.5060     0.8000    -1.7590 ha         1 CIS       0.173000
     91 H2           7.6370    -1.3130    -0.8610 h1         1 CIS       0.099700
     92 HO1          9.6630    -0.1610    -0.0510 ho         1 CIS       0.434000
     93 H1           6.9230    -0.2180     1.8850 h1         1 CIS       0.080700
     94 H1A          7.6460    -2.5750     1.8790 h1         1 CIS       0.048200
     95 H2A          5.9420    -2.3950     2.3420 h1         1 CIS       0.048200
     96 H43          5.5050    -4.7210     1.5630 h2         1 CIS       0.024700
     97 H44          6.3720    -5.2080    -1.3360 h1         1 CIS       0.076700
     98 HO3          4.4450    -3.8650    -0.9700 ho         1 CIS       0.487000
     99 H47          6.8100    -6.5660     2.2930 h1         1 CIS       0.048700
    100 H481         8.9300    -7.8830     2.2290 h1         1 CIS       0.028700
    101 H482         9.6450    -6.6920     1.1340 h1         1 CIS       0.028700
    102 HO7         10.2940    -6.2730     3.2770 ho         1 CIS       0.492000
    103 H46          6.9270    -8.3750     0.6650 h1         1 CIS       0.077700
    104 HO5          7.4010    -7.6480    -1.6210 ho         1 CIS       0.490000
    105 H45          4.8730    -7.0570     0.6040 h1         1 CIS       0.055700
    106 HN           4.9540    -0.8730    -0.2820 hn         1 CIS       0.323500
    107 H191         3.0860     1.9090     0.3280 hc         1 CIS       0.056700
    108 H192         3.2420     0.3780    -0.5940 hc         1 CIS       0.056700
    109 H201         2.1930    -0.8350     1.3570 hc         1 CIS       0.054200
    110 H202         1.9520     0.7120     2.1680 hc         1 CIS       0.054200
    111 H211         0.4950     1.4770     0.2620 hc         1 CIS       0.037200
    112 H212         0.7460    -0.0720    -0.5460 hc         1 CIS       0.037200
    113 H221        -0.3230    -1.2470     1.4190 hc         1 CIS       0.038700
    114 H222        -0.6210     0.3180     2.1760 hc         1 CIS       0.038700
    115 H231        -2.0630     0.9830     0.2260 hc         1 CIS       0.037200
    116 H232        -1.7530    -0.5790    -0.5330 hc         1 CIS       0.037200
    117 H241        -2.8290    -1.7310     1.4390 hc         1 CIS       0.037200
    118 H242        -3.1790    -0.1560     2.1520 hc         1 CIS       0.037200
    119 H251        -4.6040     0.4260     0.1640 hc         1 CIS       0.037200
    120 H252        -4.2410    -1.1450    -0.5540 hc         1 CIS       0.037200
    121 H261        -5.3250    -2.2810     1.4210 hc         1 CIS       0.037200
    122 H262        -5.7210    -0.7020     2.0990 hc         1 CIS       0.037200
    123 H271        -7.1270    -0.1890     0.0790 hc         1 CIS       0.037200
    124 H272        -6.7200    -1.7630    -0.6040 hc         1 CIS       0.037200
    125 H281        -7.8100    -2.8890     1.3710 hc         1 CIS       0.037200
    126 H282        -8.2440    -1.3090     2.0220 hc         1 CIS       0.037200
    127 H291        -9.6340    -0.8500    -0.0210 hc         1 CIS       0.037200
    128 H292        -9.1920    -2.4270    -0.6750 hc         1 CIS       0.037200
    129 H301       -10.2870    -3.5440     1.3020 hc         1 CIS       0.038700
    130 H302       -10.7500    -1.9620     1.9290 hc         1 CIS       0.038700
    131 H311       -12.1130    -1.5510    -0.1450 hc         1 CIS       0.044700
    132 H312       -11.6620    -3.1270    -0.7590 hc         1 CIS       0.044700
    133 H32        -12.9540    -4.3090     0.9270 ha         1 CIS       0.164000
    134 H33        -14.7840    -3.1910     2.0400 ha         1 CIS       0.163000
    135 H341       -14.6230    -0.8580     2.6540 hc         1 CIS       0.044200
    136 H342       -13.3000    -0.5520     1.5490 hc         1 CIS       0.044200
    137 H351       -14.8610    -0.8290    -0.4060 hc         1 CIS       0.039200
    138 H352       -16.1950    -1.1170     0.7110 hc         1 CIS       0.039200
    139 H361       -15.8770     1.1810     1.6840 hc         1 CIS       0.037200
    140 H362       -14.5450     1.4680     0.5620 hc         1 CIS       0.037200
    141 H371       -16.1220     1.1950    -1.3770 hc         1 CIS       0.037200
    142 H372       -17.4530     0.9140    -0.2540 hc         1 CIS       0.037200
    143 H381       -17.1330     3.2150     0.7030 hc         1 CIS       0.037200
    144 H382       -15.7980     3.4950    -0.4160 hc         1 CIS       0.037200
    145 H391       -17.3710     3.2170    -2.3590 hc         1 CIS       0.036700
    146 H392       -18.7050     2.9440    -1.2380 hc         1 CIS       0.036700
    147 H401       -18.3850     5.2500    -0.2890 hc         1 CIS       0.036200
    148 H402       -17.0470     5.5240    -1.4060 hc         1 CIS       0.036200
    149 H411       -18.6180     5.2840    -3.3600 hc         1 CIS       0.030700
    150 H412       -19.9680     5.0100    -2.2340 hc         1 CIS       0.030700
    151 H413       -19.1360     6.5800    -2.2590 hc         1 CIS       0.030700
@<TRIPOS>BOND
     1     1     2 1   
     2     1    62 1   
     3     1    63 1   
     4     1    64 1   
     5     2     3 1   
     6     2    65 1   
     7     2    66 1   
     8     3     4 1   
     9     3    67 1   
    10     3    68 1   
    11     4     5 1   
    12     4    69 1   
    13     4    70 1   
    14     5     6 1   
    15     5    71 1   
    16     5    72 1   
    17     6     7 1   
    18     6    73 1   
    19     6    74 1   
    20     7     8 1   
    21     7    75 1   
    22     7    76 1   
    23     8     9 1   
    24     8    77 1   
    25     8    78 1   
    26     9    10 1   
    27     9    79 1   
    28     9    80 1   
    29    10    11 1   
    30    10    81 1   
    31    10    82 1   
    32    11    12 1   
    33    11    83 1   
    34    11    84 1   
    35    12    13 1   
    36    12    85 1   
    37    12    86 1   
    38    13    14 1   
    39    13    87 1   
    40    13    88 1   
    41    14    15 2   
    42    14    89 1   
    43    15    16 1   
    44    15    90 1   
    45    16    17 1   
    46    16    18 1   
    47    16    91 1   
    48    17    92 1   
    49    18    19 1   
    50    18    36 1   
    51    18    93 1   
    52    19    20 1   
    53    19    94 1   
    54    19    95 1   
    55    20    21 1   
    56    21    22 1   
    57    21    24 1   
    58    21    96 1   
    59    22    23 1   
    60    22    30 1   
    61    22    97 1   
    62    23    98 1   
    63    24    25 1   
    64    25    26 1   
    65    25    28 1   
    66    25    99 1   
    67    26    27 1   
    68    26   100 1   
    69    26   101 1   
    70    27   102 1   
    71    28    29 1   
    72    28    30 1   
    73    28   103 1   
    74    29   104 1   
    75    30    31 1   
    76    30   105 1   
    77    31    32 1   
    78    32    33 1   
    79    32    34 1   
    80    32    35 1   
    81    36    37 1   
    82    36   106 1   
    83    37    38 2   
    84    37    39 1   
    85    39    40 1   
    86    39   107 1   
    87    39   108 1   
    88    40    41 1   
    89    40   109 1   
    90    40   110 1   
    91    41    42 1   
    92    41   111 1   
    93    41   112 1   
    94    42    43 1   
    95    42   113 1   
    96    42   114 1   
    97    43    44 1   
    98    43   115 1   
    99    43   116 1   
   100    44    45 1   
   101    44   117 1   
   102    44   118 1   
   103    45    46 1   
   104    45   119 1   
   105    45   120 1   
   106    46    47 1   
   107    46   121 1   
   108    46   122 1   
   109    47    48 1   
   110    47   123 1   
   111    47   124 1   
   112    48    49 1   
   113    48   125 1   
   114    48   126 1   
   115    49    50 1   
   116    49   127 1   
   117    49   128 1   
   118    50    51 1   
   119    50   129 1   
   120    50   130 1   
   121    51    52 1   
   122    51   131 1   
   123    51   132 1   
   124    52    53 2   
   125    52   133 1   
   126    53    54 1   
   127    53   134 1   
   128    54    55 1   
   129    54   135 1   
   130    54   136 1   
   131    55    56 1   
   132    55   137 1   
   133    55   138 1   
   134    56    57 1   
   135    56   139 1   
   136    56   140 1   
   137    57    58 1   
   138    57   141 1   
   139    57   142 1   
   140    58    59 1   
   141    58   143 1   
   142    58   144 1   
   143    59    60 1   
   144    59   145 1   
   145    59   146 1   
   146    60    61 1   
   147    60   147 1   
   148    60   148 1   
   149    61   149 1   
   150    61   150 1   
   151    61   151 1   
@<TRIPOS>SUBSTRUCTURE
     1 CIS         1 TEMP              0 ****  ****    0 ROOT
