@<TRIPOS>MOLECULE
CIS
  151   151     1     0     0
SMALL
bcc


@<TRIPOS>ATOM
      1 C17          1.2440    17.4020     0.0770 c3         1 CIS      -0.088100
      2 C16          1.9940    16.2610     0.7510 c3         1 CIS      -0.075400
      3 C15          2.1530    15.0450    -0.1540 c3         1 CIS      -0.076400
      4 C14          2.9040    13.8930     0.5040 c3         1 CIS      -0.074400
      5 C13          3.0590    12.6830    -0.4080 c3         1 CIS      -0.074400
      6 C12          3.8040    11.5230     0.2410 c3         1 CIS      -0.074400
      7 C11          3.9490    10.3200    -0.6820 c3         1 CIS      -0.075400
      8 C10          4.6830     9.1450    -0.0470 c3         1 CIS      -0.073400
      9 C9           4.8120     7.9540    -0.9870 c3         1 CIS      -0.075400
     10 C8           5.5250     6.7560    -0.3690 c3         1 CIS      -0.073400
     11 C7           5.6340     5.5820    -1.3330 c3         1 CIS      -0.075400
     12 C6           6.3120     4.3540    -0.7360 c3         1 CIS      -0.073400
     13 C5           6.3960     3.2020    -1.7380 c3         1 CIS      -0.041200
     14 C4           7.0670     1.9850    -1.1840 c2         1 CIS      -0.163200
     15 C3           6.4660     0.8070    -1.0480 c2         1 CIS      -0.197200
     16 C2           7.0970    -0.4530    -0.5260 c3         1 CIS       0.166300
     17 O1           8.4390    -0.2940    -0.1490 oh         1 CIS      -0.574800
     18 C1           6.2710    -1.0600     0.6340 c3         1 CIS       0.080700
     19 C            6.8550    -2.3670     1.1460 c3         1 CIS       0.135400
     20 O            6.7980    -3.3150     0.0950 os         1 CIS      -0.418600
     21 C43          7.0560    -4.6200     0.4540 c6         1 CIS       0.307900
     22 C44          6.5860    -5.5260    -0.6890 c6         1 CIS       0.122100
     23 O3           5.1930    -5.4680    -0.8350 oh         1 CIS      -0.560800
     24 O6           8.4310    -4.7590     0.6760 os         1 CIS      -0.422600
     25 C47          8.7870    -6.0670     1.0760 c6         1 CIS       0.125100
     26 C48         10.2550    -6.0770     1.4410 c3         1 CIS       0.141400
     27 O7          10.4460    -5.2750     2.5820 oh         1 CIS      -0.591800
     28 C46          8.4600    -7.0650    -0.0360 c6         1 CIS       0.090100
     29 O5           9.1920    -6.7990    -1.2090 oh         1 CIS      -0.566800
     30 C45          6.9710    -6.9600    -0.3540 c6         1 CIS       0.220100
     31 O4           6.6240    -7.7780    -1.4570 os         1 CIS      -0.545500
     32 S            5.9880    -9.2630    -1.1550 s6         1 CIS       1.495300
     33 O10          4.7500    -9.0270    -0.4100 o          1 CIS      -0.707200
     34 O9           5.7980    -9.7500    -2.5190 o          1 CIS      -0.707200
     35 O8           7.0040    -9.9850    -0.3840 o          1 CIS      -0.707200
     36 N            4.8950    -1.2490     0.2390 ns         1 CIS      -0.567900
     37 C18          3.8530    -0.5620     0.7470 c          1 CIS       0.670100
     38 O2           3.9670     0.2480     1.6560 o          1 CIS      -0.618100
     39 C19          2.5240    -0.8390     0.0790 c3         1 CIS      -0.157400
     40 C20          1.3450    -0.8240     1.0440 c3         1 CIS      -0.065400
     41 C21          0.0150    -1.0030     0.3230 c3         1 CIS      -0.076400
     42 C22         -1.1790    -0.9980     1.2680 c3         1 CIS      -0.073400
     43 C23         -2.5130    -1.1490     0.5480 c3         1 CIS      -0.074400
     44 C24         -3.7100    -1.1470     1.4920 c3         1 CIS      -0.074400
     45 C25         -5.0450    -1.2880     0.7700 c3         1 CIS      -0.074400
     46 C26         -6.2410    -1.2830     1.7140 c3         1 CIS      -0.074400
     47 C27         -7.5770    -1.4260     0.9950 c3         1 CIS      -0.074400
     48 C28         -8.7710    -1.4120     1.9410 c3         1 CIS      -0.074400
     49 C29        -10.1080    -1.5710     1.2280 c3         1 CIS      -0.075400
     50 C30        -11.2980    -1.5320     2.1780 c3         1 CIS      -0.073400
     51 C31        -12.6390    -1.7240     1.4680 c3         1 CIS      -0.044200
     52 C32        -13.7870    -1.6980     2.4270 c2         1 CIS      -0.162200
     53 C33        -14.8440    -0.8860     2.4170 c2         1 CIS      -0.170200
     54 C34        -15.1850     0.1720     1.4130 c3         1 CIS      -0.041200
     55 C35        -16.5290    -0.1020     0.7370 c3         1 CIS      -0.073400
     56 C36        -16.9150     0.9640    -0.2800 c3         1 CIS      -0.075400
     57 C37        -18.2670     0.7020    -0.9320 c3         1 CIS      -0.074400
     58 C38        -18.6450     1.7390    -1.9820 c3         1 CIS      -0.074400
     59 C39        -20.0010     1.4760    -2.6230 c3         1 CIS      -0.075400
     60 C40        -20.3750     2.4980    -3.6900 c3         1 CIS      -0.075400
     61 C41        -21.7330     2.2240    -4.3210 c3         1 CIS      -0.088100
     62 H171         0.2370    17.0950    -0.2100 hc         1 CIS       0.030700
     63 H172         1.1520    18.2670     0.7340 hc         1 CIS       0.030700
     64 H173         1.7590    17.7260    -0.8290 hc         1 CIS       0.030700
     65 H161         2.9830    16.6080     1.0670 hc         1 CIS       0.036200
     66 H162         1.4710    15.9650     1.6650 hc         1 CIS       0.036200
     67 H151         1.1630    14.6980    -0.4700 hc         1 CIS       0.036700
     68 H152         2.6760    15.3410    -1.0700 hc         1 CIS       0.036700
     69 H141         3.8940    14.2400     0.8210 hc         1 CIS       0.036700
     70 H142         2.3810    13.5950     1.4190 hc         1 CIS       0.036700
     71 H131         2.0680    12.3410    -0.7270 hc         1 CIS       0.036700
     72 H132         3.5830    12.9830    -1.3230 hc         1 CIS       0.036700
     73 H121         4.7970    11.8610     0.5590 hc         1 CIS       0.037200
     74 H122         3.2800    11.2210     1.1550 hc         1 CIS       0.037200
     75 H111         2.9550     9.9910    -1.0050 hc         1 CIS       0.036200
     76 H112         4.4760    10.6240    -1.5940 hc         1 CIS       0.036200
     77 H101         5.6790     9.4680     0.2740 hc         1 CIS       0.037700
     78 H102         4.1560     8.8380     0.8630 hc         1 CIS       0.037700
     79 H91          3.8130     7.6450    -1.3150 hc         1 CIS       0.036200
     80 H92          5.3450     8.2630    -1.8930 hc         1 CIS       0.036200
     81 H81          6.5260     7.0560    -0.0410 hc         1 CIS       0.038700
     82 H82          4.9900     6.4410     0.5330 hc         1 CIS       0.038700
     83 H71          4.6310     5.3040    -1.6760 hc         1 CIS       0.035700
     84 H72          6.1820     5.8970    -2.2280 hc         1 CIS       0.035700
     85 H61          7.3180     4.6180    -0.3940 hc         1 CIS       0.042700
     86 H62          5.7600     4.0250     0.1500 hc         1 CIS       0.042700
     87 H51          5.3910     2.9440    -2.0830 hc         1 CIS       0.041700
     88 H52          6.9490     3.5470    -2.6190 hc         1 CIS       0.041700
     89 H4           8.1070     2.1060    -0.8920 ha         1 CIS       0.120000
     90 H3           5.4330     0.7120    -1.3670 ha         1 CIS       0.123000
     91 H2           7.1060    -1.1810    -1.3460 h1         1 CIS       0.099700
     92 HO1          8.4870     0.3600     0.5570 ho         1 CIS       0.395000
     93 H1           6.2770    -0.3530     1.4670 h1         1 CIS       0.080700
     94 H1A          7.8810    -2.2150     1.4900 h1         1 CIS       0.048200
     95 H2A          6.2630    -2.7120     2.0030 h1         1 CIS       0.048200
     96 H43          6.5030    -4.8890     1.3750 h2         1 CIS       0.024700
     97 H44          7.1040    -5.2150    -1.6070 h1         1 CIS       0.076700
     98 HO3          4.9600    -4.5930    -1.1610 ho         1 CIS       0.388000
     99 H47          8.2110    -6.3610     1.9690 h1         1 CIS       0.048700
    100 H481        10.5450    -7.1200     1.6250 h1         1 CIS       0.028700
    101 H482        10.8490    -5.7190     0.5910 h1         1 CIS       0.028700
    102 HO7         11.3820    -5.2870     2.8000 ho         1 CIS       0.393000
    103 H46          8.6630    -8.0750     0.3390 h1         1 CIS       0.077700
    104 HO5          9.9910    -7.3330    -1.2050 ho         1 CIS       0.391000
    105 H45          6.4120    -7.2560     0.5440 h1         1 CIS       0.055700
    106 HN           4.7140    -1.9040    -0.5050 hn         1 CIS       0.323500
    107 H191         2.3830    -0.0600    -0.6790 hc         1 CIS       0.056700
    108 H192         2.5520    -1.7860    -0.4650 hc         1 CIS       0.056700
    109 H201         1.4680    -1.6190     1.7860 hc         1 CIS       0.054200
    110 H202         1.3360     0.1180     1.5970 hc         1 CIS       0.054200
    111 H211        -0.1050    -0.2030    -0.4170 hc         1 CIS       0.037200
    112 H212         0.0250    -1.9400    -0.2440 hc         1 CIS       0.037200
    113 H221        -1.0660    -1.8070     1.9990 hc         1 CIS       0.038700
    114 H222        -1.1810    -0.0660     1.8450 hc         1 CIS       0.038700
    115 H231        -2.6260    -0.3380    -0.1800 hc         1 CIS       0.037200
    116 H232        -2.5110    -2.0790    -0.0320 hc         1 CIS       0.037200
    117 H241        -3.6010    -1.9610     2.2170 hc         1 CIS       0.037200
    118 H242        -3.7090    -0.2190     2.0760 hc         1 CIS       0.037200
    119 H251        -5.1530    -0.4740     0.0450 hc         1 CIS       0.037200
    120 H252        -5.0470    -2.2150     0.1870 hc         1 CIS       0.037200
    121 H261        -6.1310    -2.0950     2.4410 hc         1 CIS       0.037200
    122 H262        -6.2390    -0.3540     2.2960 hc         1 CIS       0.037200
    123 H271        -7.6850    -0.6180     0.2640 hc         1 CIS       0.037200
    124 H272        -7.5810    -2.3580     0.4190 hc         1 CIS       0.037200
    125 H281        -8.6580    -2.2140     2.6800 hc         1 CIS       0.037200
    126 H282        -8.7710    -0.4750     2.5100 hc         1 CIS       0.037200
    127 H291       -10.2180    -0.7800     0.4780 hc         1 CIS       0.037200
    128 H292       -10.1150    -2.5170     0.6740 hc         1 CIS       0.037200
    129 H301       -11.1800    -2.3080     2.9420 hc         1 CIS       0.038700
    130 H302       -11.3060    -0.5770     2.7130 hc         1 CIS       0.038700
    131 H311       -12.7540    -0.9610     0.6950 hc         1 CIS       0.044700
    132 H312       -12.6240    -2.6890     0.9490 hc         1 CIS       0.044700
    133 H32        -13.7250    -2.4260     3.2320 ha         1 CIS       0.114000
    134 H33        -15.5730    -1.0060     3.2140 ha         1 CIS       0.113000
    135 H341       -15.2400     1.1430     1.9170 hc         1 CIS       0.044200
    136 H342       -14.4080     0.2650     0.6510 hc         1 CIS       0.044200
    137 H351       -16.4920    -1.0790     0.2440 hc         1 CIS       0.039200
    138 H352       -17.3100    -0.1770     1.5020 hc         1 CIS       0.039200
    139 H361       -16.9300     1.9460     0.2060 hc         1 CIS       0.037200
    140 H362       -16.1430     1.0220    -1.0550 hc         1 CIS       0.037200
    141 H371       -18.2590    -0.2920    -1.3940 hc         1 CIS       0.037200
    142 H372       -19.0410     0.6680    -0.1580 hc         1 CIS       0.037200
    143 H381       -18.6460     2.7360    -1.5260 hc         1 CIS       0.037200
    144 H382       -17.8750     1.7650    -2.7600 hc         1 CIS       0.037200
    145 H391       -20.0050     0.4740    -3.0660 hc         1 CIS       0.036700
    146 H392       -20.7740     1.4650    -1.8470 hc         1 CIS       0.036700
    147 H401       -20.3700     3.5000    -3.2500 hc         1 CIS       0.036200
    148 H402       -19.6050     2.5060    -4.4680 hc         1 CIS       0.036200
    149 H411       -21.7580     1.2360    -4.7860 hc         1 CIS       0.030700
    150 H412       -22.5280     2.2540    -3.5730 hc         1 CIS       0.030700
    151 H413       -21.9760     2.9580    -5.0900 hc         1 CIS       0.030700
@<TRIPOS>BOND
     1     1     2 1   
     2     1    62 1   
     3     1    63 1   
     4     1    64 1   
     5     2     3 1   
     6     2    65 1   
     7     2    66 1   
     8     3     4 1   
     9     3    67 1   
    10     3    68 1   
    11     4     5 1   
    12     4    69 1   
    13     4    70 1   
    14     5     6 1   
    15     5    71 1   
    16     5    72 1   
    17     6     7 1   
    18     6    73 1   
    19     6    74 1   
    20     7     8 1   
    21     7    75 1   
    22     7    76 1   
    23     8     9 1   
    24     8    77 1   
    25     8    78 1   
    26     9    10 1   
    27     9    79 1   
    28     9    80 1   
    29    10    11 1   
    30    10    81 1   
    31    10    82 1   
    32    11    12 1   
    33    11    83 1   
    34    11    84 1   
    35    12    13 1   
    36    12    85 1   
    37    12    86 1   
    38    13    14 1   
    39    13    87 1   
    40    13    88 1   
    41    14    15 2   
    42    14    89 1   
    43    15    16 1   
    44    15    90 1   
    45    16    17 1   
    46    16    18 1   
    47    16    91 1   
    48    17    92 1   
    49    18    19 1   
    50    18    36 1   
    51    18    93 1   
    52    19    20 1   
    53    19    94 1   
    54    19    95 1   
    55    20    21 1   
    56    21    22 1   
    57    21    24 1   
    58    21    96 1   
    59    22    23 1   
    60    22    30 1   
    61    22    97 1   
    62    23    98 1   
    63    24    25 1   
    64    25    26 1   
    65    25    28 1   
    66    25    99 1   
    67    26    27 1   
    68    26   100 1   
    69    26   101 1   
    70    27   102 1   
    71    28    29 1   
    72    28    30 1   
    73    28   103 1   
    74    29   104 1   
    75    30    31 1   
    76    30   105 1   
    77    31    32 1   
    78    32    33 1   
    79    32    34 1   
    80    32    35 1   
    81    36    37 1   
    82    36   106 1   
    83    37    38 2   
    84    37    39 1   
    85    39    40 1   
    86    39   107 1   
    87    39   108 1   
    88    40    41 1   
    89    40   109 1   
    90    40   110 1   
    91    41    42 1   
    92    41   111 1   
    93    41   112 1   
    94    42    43 1   
    95    42   113 1   
    96    42   114 1   
    97    43    44 1   
    98    43   115 1   
    99    43   116 1   
   100    44    45 1   
   101    44   117 1   
   102    44   118 1   
   103    45    46 1   
   104    45   119 1   
   105    45   120 1   
   106    46    47 1   
   107    46   121 1   
   108    46   122 1   
   109    47    48 1   
   110    47   123 1   
   111    47   124 1   
   112    48    49 1   
   113    48   125 1   
   114    48   126 1   
   115    49    50 1   
   116    49   127 1   
   117    49   128 1   
   118    50    51 1   
   119    50   129 1   
   120    50   130 1   
   121    51    52 1   
   122    51   131 1   
   123    51   132 1   
   124    52    53 2   
   125    52   133 1   
   126    53    54 1   
   127    53   134 1   
   128    54    55 1   
   129    54   135 1   
   130    54   136 1   
   131    55    56 1   
   132    55   137 1   
   133    55   138 1   
   134    56    57 1   
   135    56   139 1   
   136    56   140 1   
   137    57    58 1   
   138    57   141 1   
   139    57   142 1   
   140    58    59 1   
   141    58   143 1   
   142    58   144 1   
   143    59    60 1   
   144    59   145 1   
   145    59   146 1   
   146    60    61 1   
   147    60   147 1   
   148    60   148 1   
   149    61   149 1   
   150    61   150 1   
   151    61   151 1   
@<TRIPOS>SUBSTRUCTURE
     1 CIS         1 TEMP              0 ****  ****    0 ROOT
