@<TRIPOS>MOLECULE
CIT
   18    17     1     0     0
SMALL
abcg2


@<TRIPOS>ATOM
      1 C1          68.2930    48.6910    33.1030 c          1 CIT       0.724500
      2 O1          68.3120    48.1080    31.9950 o          1 CIT      -0.791000
      3 O2          68.8970    49.7490    33.3780 o          1 CIT      -0.791000
      4 C2          67.4780    48.0410    34.2380 c3         1 CIT      -0.183900
      5 C3          65.9550    48.0500    34.0120 c3         1 CIT       0.107000
      6 O7          65.6110    49.3350    33.5420 oh         1 CIT      -0.711000
      7 C4          65.5170    46.9920    32.9820 c3         1 CIT      -0.183900
      8 C5          64.0160    47.0140    32.6670 c          1 CIT       0.724500
      9 O3          63.4500    45.9390    32.4100 o          1 CIT      -0.791000
     10 O4          63.4580    48.1480    32.6560 o          1 CIT      -0.791000
     11 C6          65.2780    47.7250    35.3800 c          1 CIT       0.707000
     12 O5          65.4530    46.5610    35.8100 o          1 CIT      -0.785000
     13 O6          64.6420    48.6300    35.9540 o          1 CIT      -0.785000
     14 H21         67.8030    47.0060    34.3810 hc         1 CIT       0.019200
     15 H22         67.6970    48.5710    35.1710 hc         1 CIT       0.019200
     16 HO7         64.7010    49.1970    33.1960 ho         1 CIT       0.475000
     17 H41         66.0620    47.1740    32.0500 hc         1 CIT       0.019200
     18 H42         65.8100    45.9980    33.3190 hc         1 CIT       0.019200
@<TRIPOS>BOND
     1     1     2 1   
     2     1     3 1   
     3     1     4 1   
     4     4     5 1   
     5     4    14 1   
     6     4    15 1   
     7     5     6 1   
     8     5     7 1   
     9     5    11 1   
    10     6    16 1   
    11     7     8 1   
    12     7    17 1   
    13     7    18 1   
    14     8     9 1   
    15     8    10 1   
    16    11    12 1   
    17    11    13 1   
@<TRIPOS>SUBSTRUCTURE
     1 CIT         1 TEMP              0 ****  ****    0 ROOT
