@<TRIPOS>MOLECULE
CIT
   18    17     1     0     0
SMALL
No Charge or Current Charge


@<TRIPOS>ATOM
      1 C1          68.3230    48.5780    33.0720 c          1 CIT       0.724500
      2 O1          68.7100    47.7790    32.2300 o          1 CIT      -0.791000
      3 O2          68.6300    49.7620    33.0450 o          1 CIT      -0.791000
      4 C2          67.5150    48.0430    34.2750 c3         1 CIT      -0.183900
      5 C3          65.9590    48.0240    34.0570 c3         1 CIT       0.107000
      6 O7          65.5360    49.3700    33.7100 oh         1 CIT      -0.711000
      7 C4          65.5440    47.1320    32.8500 c3         1 CIT      -0.183900
      8 C5          64.0160    47.1550    32.6800 c          1 CIT       0.724500
      9 O3          63.3590    46.2220    33.1130 o          1 CIT      -0.791000
     10 O4          63.5210    48.1600    32.1920 o          1 CIT      -0.791000
     11 C6          65.2380    47.4760    35.3880 c          1 CIT       0.707000
     12 O5          65.6810    46.4750    35.9410 o          1 CIT      -0.785000
     13 O6          64.3230    48.1240    35.8880 o          1 CIT      -0.785000
     14 H21         67.7970    46.9990    34.4530 hc         1 CIT       0.019200
     15 H22         67.6790    48.6890    35.1470 hc         1 CIT       0.019200
     16 HO7         64.6950    49.2360    33.2020 ho         1 CIT       0.475000
     17 H41         66.0030    47.5930    31.9670 hc         1 CIT       0.019200
     18 H42         65.9040    46.1130    33.0350 hc         1 CIT       0.019200
@<TRIPOS>BOND
     1     1     2 1   
     2     1     3 1   
     3     1     4 1   
     4     4     5 1   
     5     4    14 1   
     6     4    15 1   
     7     5     6 1   
     8     5     7 1   
     9     5    11 1   
    10     6    16 1   
    11     7     8 1   
    12     7    17 1   
    13     7    18 1   
    14     8     9 1   
    15     8    10 1   
    16    11    12 1   
    17    11    13 1   
@<TRIPOS>SUBSTRUCTURE
     1 CIT         1 TEMP              0 ****  ****    0 ROOT
