@<TRIPOS>MOLECULE
CIU
   34    35     1     0     0
SMALL
abcg2


@<TRIPOS>ATOM
      1 C1          -0.2510    -0.9990     7.2630 c6         1 CIU      -0.071400
      2 C2           0.5730    -0.9580     5.9790 c6         1 CIU      -0.090900
      3 C3          -0.1590    -0.1900     4.8810 c6         1 CIU       0.121700
      4 C4          -0.5210     1.2200     5.3500 c6         1 CIU      -0.090900
      5 C5          -1.3430     1.1780     6.6340 c6         1 CIU      -0.071400
      6 C6          -0.6220     0.4040     7.7320 c6         1 CIU      -0.077400
      7 N1           0.6420    -0.1760     3.6730 ns         1 CIU      -0.519900
      8 C7           0.1040    -0.2000     2.4340 c          1 CIU       0.664100
      9 O2          -1.0940    -0.3250     2.2210 o          1 CIU      -0.621100
     10 N2           1.0400    -0.0900     1.4280 ns         1 CIU      -0.166000
     11 C8           0.8260    -0.0830     0.0560 ca         1 CIU       0.018000
     12 C9          -0.3570    -0.4880    -0.5680 ca         1 CIU      -0.160500
     13 C10         -0.4620    -0.4640    -1.9520 ca         1 CIU      -0.050000
     14 C11          0.6040    -0.0460    -2.7310 ca         1 CIU       0.162000
     15 C12          1.7900     0.3510    -2.1290 ca         1 CIU      -0.050000
     16 C13          1.8920     0.3320    -0.7500 ca         1 CIU      -0.160500
     17 HC11        -1.1630    -1.5790     7.0880 hc         1 CIU       0.044200
     18 HC12         0.3060    -1.5270     8.0400 hc         1 CIU       0.044200
     19 HC21         0.7960    -1.9700     5.6330 hc         1 CIU       0.044200
     20 HC22         1.5350    -0.4720     6.1830 hc         1 CIU       0.044200
     21 HC31        -1.0830    -0.7250     4.6490 h1         1 CIU       0.083700
     22 HC41         0.4010     1.7870     5.5180 hc         1 CIU       0.044200
     23 HC42        -1.0720     1.7380     4.5610 hc         1 CIU       0.044200
     24 HC51        -2.3080     0.7010     6.4290 hc         1 CIU       0.044200
     25 HC52        -1.5670     2.1940     6.9680 hc         1 CIU       0.044200
     26 HC61        -1.2450     0.3490     8.6280 hc         1 CIU       0.040700
     27 HC62         0.2880     0.9430     8.0180 hc         1 CIU       0.040700
     28 HN1          1.6260     0.0180     3.7840 hn         1 CIU       0.304500
     29 HN2          1.9930     0.0860     1.7060 hn         1 CIU       0.144000
     30 H9          -1.2020    -0.8280     0.0070 ha         1 CIU       0.131000
     31 H10         -1.3910    -0.7850    -2.4040 ha         1 CIU       0.126500
     32 H12          2.6370     0.6800    -2.7150 ha         1 CIU       0.126500
     33 H13          2.8210     0.6520    -0.2910 ha         1 CIU       0.131000
     34 I4           0.4290    -0.0170    -4.8260 i          1 CIU      -0.317000
@<TRIPOS>BOND
     1     1     2 1   
     2     1     6 1   
     3     1    17 1   
     4     1    18 1   
     5     2     3 1   
     6     2    19 1   
     7     2    20 1   
     8     3     4 1   
     9     3     7 1   
    10     3    21 1   
    11     4     5 1   
    12     4    22 1   
    13     4    23 1   
    14     5     6 1   
    15     5    24 1   
    16     5    25 1   
    17     6    26 1   
    18     6    27 1   
    19     7     8 1   
    20     7    28 1   
    21     8     9 2   
    22     8    10 1   
    23    10    11 1   
    24    10    29 1   
    25    11    12 ar  
    26    11    16 ar  
    27    12    13 ar  
    28    12    30 1   
    29    13    14 ar  
    30    13    31 1   
    31    14    15 ar  
    32    14    34 1   
    33    15    16 ar  
    34    15    32 1   
    35    16    33 1   
@<TRIPOS>SUBSTRUCTURE
     1 CIU         1 TEMP              0 ****  ****    0 ROOT
