@<TRIPOS>MOLECULE
CIU
   34    35     1     0     0
SMALL
No Charge or Current Charge


@<TRIPOS>ATOM
      1 C1          -0.0050    -0.9050     7.4090 c6         1 CIU      -0.071400
      2 C2           0.7260    -0.8360     6.0440 c6         1 CIU      -0.090900
      3 C3          -0.2050    -0.2940     4.9290 c6         1 CIU       0.121700
      4 C4          -0.7520     1.1000     5.3350 c6         1 CIU      -0.090900
      5 C5          -1.4920     1.0450     6.6950 c6         1 CIU      -0.071400
      6 C6          -0.5750     0.4780     7.8070 c6         1 CIU      -0.077400
      7 N1           0.5280    -0.2110     3.6600 ns         1 CIU      -0.519900
      8 C7          -0.0400    -0.2270     2.4080 c          1 CIU       0.664100
      9 O2          -1.2470    -0.3360     2.2420 o          1 CIU      -0.621100
     10 N2           0.9030    -0.1090     1.4010 ns         1 CIU      -0.166000
     11 C8           0.7900    -0.0750    -0.0150 ca         1 CIU       0.018000
     12 C9          -0.4420    -0.1440    -0.7040 ca         1 CIU      -0.160500
     13 C10         -0.4740    -0.1030    -2.1110 ca         1 CIU      -0.050000
     14 C11          0.7190     0.0080    -2.8400 ca         1 CIU       0.162000
     15 C12          1.9480     0.0780    -2.1660 ca         1 CIU      -0.050000
     16 C13          1.9800     0.0370    -0.7600 ca         1 CIU      -0.160500
     17 HC11        -0.8200    -1.6400     7.3560 hc         1 CIU       0.044200
     18 HC12         0.6860    -1.2610     8.1850 hc         1 CIU       0.044200
     19 HC21         1.0890    -1.8370     5.7720 hc         1 CIU       0.044200
     20 HC22         1.6150    -0.1960     6.1360 hc         1 CIU       0.044200
     21 HC31        -1.0490    -0.9900     4.8040 h1         1 CIU       0.083700
     22 HC41         0.0730     1.8230     5.3930 hc         1 CIU       0.044200
     23 HC42        -1.4380     1.4720     4.5610 hc         1 CIU       0.044200
     24 HC51        -2.3910     0.4200     6.6030 hc         1 CIU       0.044200
     25 HC52        -1.8370     2.0500     6.9730 hc         1 CIU       0.044200
     26 HC61        -1.1360     0.3950     8.7480 hc         1 CIU       0.040700
     27 HC62         0.2510     1.1780     7.9970 hc         1 CIU       0.040700
     28 HN1          1.5350    -0.1190     3.7000 hn         1 CIU       0.304500
     29 HN2          1.8550    -0.0320     1.7320 hn         1 CIU       0.144000
     30 H9          -1.3850    -0.2290    -0.1730 ha         1 CIU       0.131000
     31 H10         -1.4240    -0.1570    -2.6370 ha         1 CIU       0.126500
     32 H12          2.8710     0.1640    -2.7330 ha         1 CIU       0.126500
     33 H13          2.9390     0.0930    -0.2490 ha         1 CIU       0.131000
     34 I4           0.6660     0.0700    -5.0050 i          1 CIU      -0.317000
@<TRIPOS>BOND
     1     1     2 1   
     2     1     6 1   
     3     1    17 1   
     4     1    18 1   
     5     2     3 1   
     6     2    19 1   
     7     2    20 1   
     8     3     4 1   
     9     3     7 1   
    10     3    21 1   
    11     4     5 1   
    12     4    22 1   
    13     4    23 1   
    14     5     6 1   
    15     5    24 1   
    16     5    25 1   
    17     6    26 1   
    18     6    27 1   
    19     7     8 1   
    20     7    28 1   
    21     8     9 2   
    22     8    10 1   
    23    10    11 1   
    24    10    29 1   
    25    11    12 ar  
    26    11    16 ar  
    27    12    13 ar  
    28    12    30 1   
    29    13    14 ar  
    30    13    31 1   
    31    14    15 ar  
    32    14    34 1   
    33    15    16 ar  
    34    15    32 1   
    35    16    33 1   
@<TRIPOS>SUBSTRUCTURE
     1 CIU         1 TEMP              0 ****  ****    0 ROOT
