@<TRIPOS>MOLECULE
CIV
   49    50     1     0     0
SMALL
abcg2


@<TRIPOS>ATOM
      1 N1           5.4070    10.8870    40.3340 n8         1 CIV      -1.013200
      2 CA1          6.0660    12.1170    39.9520 c3         1 CIV       0.152200
      3 CB1          5.0880    13.2450    39.6360 c3         1 CIV      -0.066400
      4 CG1          4.2740    12.9660    38.3800 c3         1 CIV      -0.067400
      5 C1           6.9190    12.4400    41.1200 cc         1 CIV       0.476600
      6 N2           6.3280    12.7900    42.3250 nc         1 CIV      -0.655000
      7 N3           8.2320    12.3410    41.1970 n          1 CIV      -0.267400
      8 C2           8.6070    12.6530    42.5350 c          1 CIV       0.375700
      9 O2           9.7120    12.7000    42.9570 o          1 CIV      -0.287000
     10 CA2          7.2670    12.9330    43.1880 cd         1 CIV       0.524300
     11 CA3          9.1810    11.9440    40.1730 c3         1 CIV      -0.027000
     12 C3           9.6530    13.0160    39.1940 c          1 CIV       0.602100
     13 O3          10.4400    12.6670    38.3340 o          1 CIV      -0.529100
     14 CB2          7.1200    13.2230    44.6210 c3         1 CIV      -0.063400
     15 CG2          7.5210    11.9480    45.3340 ca         1 CIV      -0.190300
     16 CD1          8.6820    11.8830    46.0960 ca         1 CIV      -0.051000
     17 CD2          6.7440    10.7970    45.2000 ca         1 CIV      -0.051000
     18 CE1          9.0540    10.7080    46.7260 ca         1 CIV      -0.172000
     19 CE2          7.1050     9.6170    45.8230 ca         1 CIV      -0.172000
     20 CZ           8.2670     9.5640    46.5920 ca         1 CIV       0.184100
     21 OH           8.5770     8.3960    47.1770 oh         1 CIV      -0.511100
     22 CD           3.3080    14.1050    38.0760 c3         1 CIV      -0.071400
     23 CE           2.4080    13.8440    36.8770 c3         1 CIV       0.150800
     24 NZ           3.1800    13.6440    35.6600 n8         1 CIV      -1.005200
     25 H1           6.0370    10.1070    40.4690 hn         1 CIV       0.449000
     26 HN11         4.7930    10.9850    41.1330 hn         1 CIV       0.449000
     27 HA1          6.6850    11.9260    39.0730 h1         1 CIV       0.105700
     28 HB11         5.6620    14.1660    39.5060 hc         1 CIV       0.057200
     29 HB12         4.4250    13.4030    40.4910 hc         1 CIV       0.057200
     30 HG12         3.7130    12.0360    38.4960 hc         1 CIV       0.067200
     31 HG11         4.9490    12.8190    37.5330 hc         1 CIV       0.067200
     32 HA32         8.7580    11.1180    39.6010 h1         1 CIV       0.121700
     33 HA31        10.0610    11.5520    40.6810 h1         1 CIV       0.121700
     34 HB2          7.7850    14.0420    44.9040 hc         1 CIV       0.110700
     35 H5           6.0930    13.5170    44.8350 hc         1 CIV       0.110700
     36 HD1          9.3050    12.7620    46.2060 ha         1 CIV       0.120000
     37 HD2          5.8390    10.8200    44.6040 ha         1 CIV       0.120000
     38 HE1          9.9580    10.6840    47.3240 ha         1 CIV       0.141500
     39 HE2          6.4900     8.7320    45.7160 ha         1 CIV       0.141500
     40 HOH          9.3930     8.4720    47.6840 ho         1 CIV       0.483000
     41 HD2A         3.8700    15.0310    37.9130 hc         1 CIV       0.038700
     42 HD1A         2.6730    14.2870    38.9490 hc         1 CIV       0.038700
     43 HE2A         1.6820    14.6670    36.8020 h1         1 CIV       0.037700
     44 HE1A         1.8230    12.9380    37.0620 h1         1 CIV       0.037700
     45 N4           9.1800    14.2560    39.3280 nt         1 CIV      -0.599000
     46 H2           9.5030    14.9720    38.6950 hn         1 CIV       0.328000
     47 H3           2.5540    13.4420    34.8910 hn         1 CIV       0.399500
     48 H4           3.6440    14.5100    35.4140 hn         1 CIV       0.399500
     49 H6           8.5670    14.5610    40.0630 hn         1 CIV       0.328000
@<TRIPOS>BOND
     1     1     2 1   
     2     1    25 1   
     3     1    26 1   
     4     2     3 1   
     5     2     5 1   
     6     2    27 1   
     7     3     4 1   
     8     3    28 1   
     9     3    29 1   
    10     4    22 1   
    11     4    30 1   
    12     4    31 1   
    13     5     6 1   
    14     5     7 2   
    15     6    10 2   
    16     7     8 1   
    17     7    11 1   
    18     8     9 2   
    19     8    10 1   
    20    10    14 1   
    21    11    12 1   
    22    11    32 1   
    23    11    33 1   
    24    12    13 2   
    25    12    45 1   
    26    14    15 1   
    27    14    34 1   
    28    14    35 1   
    29    15    16 ar  
    30    15    17 ar  
    31    16    18 ar  
    32    16    36 1   
    33    17    19 ar  
    34    17    37 1   
    35    18    20 ar  
    36    18    38 1   
    37    19    20 ar  
    38    19    39 1   
    39    20    21 1   
    40    21    40 1   
    41    22    23 1   
    42    22    41 1   
    43    22    42 1   
    44    23    24 1   
    45    23    43 1   
    46    23    44 1   
    47    24    47 1   
    48    24    48 1   
    49    45    46 1   
    50    45    49 1   
@<TRIPOS>SUBSTRUCTURE
     1 CIV         1 TEMP              0 ****  ****    0 ROOT
