@<TRIPOS>MOLECULE
CIV
   49    50     1     0     0
SMALL
No Charge or Current Charge


@<TRIPOS>ATOM
      1 N1           4.5870    10.9150    40.4530 n8         1 CIV      -1.013200
      2 CA1          5.6630    11.9090    40.1150 c3         1 CIV       0.152200
      3 CB1          5.0220    13.1890    39.5130 c3         1 CIV      -0.066400
      4 CG1          4.2730    12.9630    38.1750 c3         1 CIV      -0.067400
      5 C1           6.5870    12.2420    41.2990 cc         1 CIV       0.476600
      6 N2           6.0920    12.3890    42.5820 nc         1 CIV      -0.655000
      7 N3           7.9640    12.3960    41.2370 n          1 CIV      -0.267400
      8 C2           8.4440    12.6410    42.5110 c          1 CIV       0.375700
      9 O2           9.6040    12.8190    42.8560 o          1 CIV      -0.287000
     10 CA2          7.1930    12.6280    43.3010 cd         1 CIV       0.524300
     11 CA3          8.8460    12.2200    40.0410 c3         1 CIV      -0.027000
     12 C3           8.8500    13.3780    39.0300 c          1 CIV       0.602100
     13 O3           9.0700    13.2130    37.8440 o          1 CIV      -0.529100
     14 CB2          7.1760    12.8420    44.7930 c3         1 CIV      -0.063400
     15 CG2          7.7150    11.6570    45.5960 ca         1 CIV      -0.190300
     16 CD1          9.0360    11.6680    46.0860 ca         1 CIV      -0.051000
     17 CD2          6.8920    10.5400    45.8420 ca         1 CIV      -0.051000
     18 CE1          9.5280    10.5720    46.8170 ca         1 CIV      -0.172000
     19 CE2          7.3880     9.4470    46.5730 ca         1 CIV      -0.172000
     20 CZ           8.7030     9.4620    47.0600 ca         1 CIV       0.184100
     21 OH           9.1700     8.3940    47.7670 oh         1 CIV      -0.511100
     22 CD           3.6920    14.2700    37.5810 c3         1 CIV      -0.071400
     23 CE           2.8960    14.0720    36.2710 c3         1 CIV       0.150800
     24 NZ           3.7490    13.6010    35.1600 n8         1 CIV      -1.005200
     25 H1           5.0150    10.0390    40.7840 hn         1 CIV       0.449000
     26 HN11         4.0950    11.2460    41.2950 hn         1 CIV       0.449000
     27 HA1          6.2890    11.4620    39.3300 h1         1 CIV       0.105700
     28 HB11         5.8090    13.9330    39.3450 hc         1 CIV       0.057200
     29 HB12         4.3340    13.6290    40.2460 hc         1 CIV       0.057200
     30 HG12         3.4540    12.2490    38.3280 hc         1 CIV       0.067200
     31 HG11         4.9610    12.5070    37.4520 hc         1 CIV       0.067200
     32 HA32         8.5670    11.3080    39.5020 h1         1 CIV       0.121700
     33 HA31         9.8850    12.0980    40.3710 h1         1 CIV       0.121700
     34 HB2          7.7450    13.7500    45.0240 hc         1 CIV       0.110700
     35 H5           6.1490    13.0640    45.1060 hc         1 CIV       0.110700
     36 HD1          9.6850    12.5230    45.9020 ha         1 CIV       0.120000
     37 HD2          5.8700    10.5170    45.4680 ha         1 CIV       0.120000
     38 HE1         10.5490    10.5940    47.1890 ha         1 CIV       0.141500
     39 HE2          6.7520     8.5870    46.7620 ha         1 CIV       0.141500
     40 HOH         10.0970     8.5760    48.0280 ho         1 CIV       0.483000
     41 HD2A         4.5040    14.9870    37.4070 hc         1 CIV       0.038700
     42 HD1A         3.0240    14.7270    38.3210 hc         1 CIV       0.038700
     43 HE2A         2.4390    15.0280    35.9780 h1         1 CIV       0.037700
     44 HE1A         2.0890    13.3440    36.4350 h1         1 CIV       0.037700
     45 N4           8.5520    14.6110    39.5020 nt         1 CIV      -0.599000
     46 H2           8.5470    15.3920    38.8620 hn         1 CIV       0.328000
     47 H3           3.1870    13.5570    34.3010 hn         1 CIV       0.399500
     48 H4           4.4510    14.3210    34.9500 hn         1 CIV       0.399500
     49 H6           8.3920    14.7590    40.4870 hn         1 CIV       0.328000
@<TRIPOS>BOND
     1     1     2 1   
     2     1    25 1   
     3     1    26 1   
     4     2     3 1   
     5     2     5 1   
     6     2    27 1   
     7     3     4 1   
     8     3    28 1   
     9     3    29 1   
    10     4    22 1   
    11     4    30 1   
    12     4    31 1   
    13     5     6 1   
    14     5     7 2   
    15     6    10 2   
    16     7     8 1   
    17     7    11 1   
    18     8     9 2   
    19     8    10 1   
    20    10    14 1   
    21    11    12 1   
    22    11    32 1   
    23    11    33 1   
    24    12    13 2   
    25    12    45 1   
    26    14    15 1   
    27    14    34 1   
    28    14    35 1   
    29    15    16 ar  
    30    15    17 ar  
    31    16    18 ar  
    32    16    36 1   
    33    17    19 ar  
    34    17    37 1   
    35    18    20 ar  
    36    18    38 1   
    37    19    20 ar  
    38    19    39 1   
    39    20    21 1   
    40    21    40 1   
    41    22    23 1   
    42    22    41 1   
    43    22    42 1   
    44    23    24 1   
    45    23    43 1   
    46    23    44 1   
    47    24    47 1   
    48    24    48 1   
    49    45    46 1   
    50    45    49 1   
@<TRIPOS>SUBSTRUCTURE
     1 CIV         1 TEMP              0 ****  ****    0 ROOT
