@<TRIPOS>MOLECULE
CIW
   35    38     1     0     0
SMALL
No Charge or Current Charge


@<TRIPOS>ATOM
      1 C1           3.8170    -1.0730    -0.8340 ca         1 CIW       0.074000
      2 C2           2.5160    -1.2290    -1.3620 ca         1 CIW      -0.071000
      3 C3           1.4830    -0.3460    -0.9830 ca         1 CIW      -0.120000
      4 C4           1.8010     0.7010    -0.1050 ca         1 CIW      -0.011000
      5 C5           3.0590     0.8280     0.4480 ca         1 CIW      -0.150300
      6 C6           4.0960    -0.0450     0.0910 ca         1 CIW      -0.061000
      7 C7           3.0690     1.9560     1.4640 c5         1 CIW      -0.122100
      8 C8           1.6040     2.4840     1.4340 c          1 CIW       0.563000
      9 O9           1.1090     3.4260     2.0390 o          1 CIW      -0.523000
     10 N10          0.9490     1.6520     0.5040 n          1 CIW      -0.207400
     11 C11         -0.4450     1.8810     0.0740 c3         1 CIW       0.154300
     12 C12         -1.4080     0.7630     0.4890 ca         1 CIW      -0.087300
     13 C13         -1.3640     0.2770     1.8230 ca         1 CIW      -0.130000
     14 C14         -2.2220    -0.7580     2.2450 ca         1 CIW      -0.126000
     15 C15         -3.1140    -1.2920     1.3120 ca         1 CIW       0.024100
     16 C16         -3.1730    -0.8300     0.0270 ca         1 CIW       0.071100
     17 C17         -2.3420     0.2050    -0.4320 ca         1 CIW      -0.102600
     18 C18         -2.4690     0.6880    -1.8500 c          1 CIW       0.717600
     19 O19         -2.0990    -0.0540    -2.7490 o          1 CIW      -0.704000
     20 O20         -2.8760     1.8270    -2.0340 o          1 CIW      -0.704000
     21 O21         -4.1380    -1.4610    -0.6950 os         1 CIW      -0.305100
     22 C22         -4.6110    -2.5000     0.2300 c5         1 CIW       0.366600
     23 O23         -4.0210    -2.2720     1.5570 os         1 CIW      -0.368100
     24 Cl24         5.0910    -2.1900    -1.3060 cl         1 CIW      -0.230000
     25 H2           2.3080    -2.0410    -2.0560 ha         1 CIW       0.127000
     26 H3           0.4750    -0.4760    -1.3690 ha         1 CIW       0.154000
     27 H6           5.0880     0.0580     0.5250 ha         1 CIW       0.121000
     28 H7           3.3040     1.6300     2.4820 hc         1 CIW       0.081700
     29 H7A          3.7520     2.7780     1.2250 hc         1 CIW       0.081700
     30 H11         -0.8090     2.8290     0.4900 h1         1 CIW       0.095700
     31 H11A        -0.4350     1.9990    -1.0160 h1         1 CIW       0.095700
     32 H13         -0.6630     0.7030     2.5360 ha         1 CIW       0.098000
     33 H14         -2.1930    -1.1300     3.2660 ha         1 CIW       0.109000
     34 H22         -5.7040    -2.4670     0.2980 h2         1 CIW       0.043700
     35 H22A        -4.2830    -3.4790    -0.1400 h2         1 CIW       0.043700
@<TRIPOS>BOND
     1     1     2 ar  
     2     1     6 ar  
     3     1    24 1   
     4     2     3 ar  
     5     2    25 1   
     6     3     4 ar  
     7     3    26 1   
     8     4     5 ar  
     9     4    10 1   
    10     5     6 ar  
    11     5     7 1   
    12     6    27 1   
    13     7     8 1   
    14     7    28 1   
    15     7    29 1   
    16     8     9 2   
    17     8    10 1   
    18    10    11 1   
    19    11    12 1   
    20    11    30 1   
    21    11    31 1   
    22    12    13 ar  
    23    12    17 ar  
    24    13    14 ar  
    25    13    32 1   
    26    14    15 ar  
    27    14    33 1   
    28    15    16 ar  
    29    15    23 1   
    30    16    17 ar  
    31    16    21 1   
    32    17    18 1   
    33    18    19 1   
    34    18    20 1   
    35    21    22 1   
    36    22    23 1   
    37    22    34 1   
    38    22    35 1   
@<TRIPOS>SUBSTRUCTURE
     1 CIW         1 TEMP              0 ****  ****    0 ROOT
