@<TRIPOS>MOLECULE
CIW
   35    38     1     0     0
SMALL
bcc


@<TRIPOS>ATOM
      1 C1           4.0150    -0.9960    -0.4390 ca         1 CIW      -0.017600
      2 C2           2.8450    -1.2190    -1.1450 ca         1 CIW      -0.089000
      3 C3           1.7430    -0.3840    -0.9610 ca         1 CIW      -0.138000
      4 C4           1.8690     0.6600    -0.0660 ca         1 CIW       0.081600
      5 C5           3.0540     0.8800     0.6370 ca         1 CIW      -0.150300
      6 C6           4.1340     0.0580     0.4670 ca         1 CIW      -0.079000
      7 C7           2.8550     2.0690     1.5180 c5         1 CIW      -0.122100
      8 C8           1.4220     2.4790     1.2330 c          1 CIW       0.705500
      9 O9           0.8140     3.4050     1.7250 o          1 CIW      -0.598500
     10 N10          0.9230     1.6110     0.2980 n          1 CIW      -0.367000
     11 C11         -0.4090     1.6750    -0.2540 c3         1 CIW       0.154300
     12 C12         -1.3090     0.5520     0.2260 ca         1 CIW      -0.087300
     13 C13         -0.9660    -0.1780     1.3550 ca         1 CIW      -0.148000
     14 C14         -1.7590    -1.2220     1.8440 ca         1 CIW      -0.144000
     15 C15         -2.8980    -1.5050     1.1410 ca         1 CIW       0.024100
     16 C16         -3.2420    -0.7960    -0.0010 ca         1 CIW       0.071100
     17 C17         -2.4910     0.2510    -0.4910 ca         1 CIW      -0.102600
     18 C18         -2.9510     1.0100    -1.7280 c          1 CIW       0.928200
     19 O19         -3.4490     0.3230    -2.6350 o          1 CIW      -0.809300
     20 O20         -2.8000     2.2450    -1.7060 o          1 CIW      -0.809300
     21 O21         -4.4010    -1.3040    -0.4960 os         1 CIW      -0.281900
     22 C22         -4.9020    -2.1830     0.4970 c5         1 CIW       0.320200
     23 O23         -3.8250    -2.4670     1.3780 os         1 CIW      -0.344900
     24 CL24         5.3700    -2.0520    -0.6850 cl         1 CIW      -0.138400
     25 H2           2.7780    -2.0450    -1.8400 ha         1 CIW       0.145000
     26 H3           0.8260    -0.5690    -1.5030 ha         1 CIW       0.172000
     27 H6           5.0560     0.2190     1.0110 ha         1 CIW       0.139000
     28 H7           2.9740     1.8420     2.5810 hc         1 CIW       0.081700
     29 H7A          3.5340     2.8950     1.2910 hc         1 CIW       0.081700
     30 H11         -0.8280     2.6440     0.0110 h1         1 CIW       0.095700
     31 H11A        -0.3280     1.6650    -1.3410 h1         1 CIW       0.095700
     32 H13         -0.0570     0.0540     1.8930 ha         1 CIW       0.116000
     33 H14         -1.4750    -1.7730     2.7300 ha         1 CIW       0.127000
     34 H22         -5.7160    -1.6990     1.0490 h2         1 CIW       0.043700
     35 H22A        -5.2530    -3.1040     0.0330 h2         1 CIW       0.043700
@<TRIPOS>BOND
     1     1     2 ar  
     2     1     6 ar  
     3     1    24 1   
     4     2     3 ar  
     5     2    25 1   
     6     3     4 ar  
     7     3    26 1   
     8     4     5 ar  
     9     4    10 1   
    10     5     6 ar  
    11     5     7 1   
    12     6    27 1   
    13     7     8 1   
    14     7    28 1   
    15     7    29 1   
    16     8     9 2   
    17     8    10 1   
    18    10    11 1   
    19    11    12 1   
    20    11    30 1   
    21    11    31 1   
    22    12    13 ar  
    23    12    17 ar  
    24    13    14 ar  
    25    13    32 1   
    26    14    15 ar  
    27    14    33 1   
    28    15    16 ar  
    29    15    23 1   
    30    16    17 ar  
    31    16    21 1   
    32    17    18 1   
    33    18    19 1   
    34    18    20 1   
    35    21    22 1   
    36    22    23 1   
    37    22    34 1   
    38    22    35 1   
@<TRIPOS>SUBSTRUCTURE
     1 CIW         1 TEMP              0 ****  ****    0 ROOT
