@<TRIPOS>MOLECULE
CIY
   23    23     1     0     0
SMALL
No Charge or Current Charge


@<TRIPOS>ATOM
      1 C1          -0.5210    -0.0170     0.0130 ca         1 CIY      -0.082800
      2 C2           0.5860     0.8560    -0.0090 ca         1 CIY      -0.147000
      3 C3           1.9070     0.3500     0.0360 ca         1 CIY       0.105100
      4 O3           3.0130     1.1860     0.0150 os         1 CIY      -0.320100
      5 C4           2.1110    -1.0500     0.1040 ca         1 CIY       0.130100
      6 O4           3.3750    -1.5750     0.1490 oh         1 CIY      -0.508100
      7 C5           1.0080    -1.9190     0.1270 ca         1 CIY      -0.188000
      8 C6          -0.2990    -1.4070     0.0820 ca         1 CIY      -0.070000
      9 C7          -1.9000     0.5540    -0.0350 ce         1 CIY      -0.077200
     10 C8          -3.1010    -0.0960    -0.0250 cf         1 CIY      -0.327200
     11 C9          -4.4100     0.5990    -0.0780 c          1 CIY       0.568100
     12 O9          -5.4770    -0.0030    -0.0670 o          1 CIY      -0.519100
     13 C3M          2.8990     2.6180    -0.0540 c3         1 CIY       0.144900
     14 H2           0.4060     1.9250    -0.0620 ha         1 CIY       0.120000
     15 HO4          3.3050    -2.5520     0.1930 ho         1 CIY       0.464000
     16 H5           1.1560    -2.9950     0.1790 ha         1 CIY       0.119000
     17 H6          -1.1340    -2.1030     0.1010 ha         1 CIY       0.121000
     18 H7          -1.9220     1.6450    -0.0870 ha         1 CIY       0.168000
     19 H8          -3.1470    -1.1810     0.0250 ha         1 CIY       0.198000
     20 H9          -4.3760     1.7100    -0.1290 h4         1 CIY      -0.022800
     21 H3M          2.3500     3.0080     0.8120 h1         1 CIY       0.041033
     22 H3MA         3.8950     3.0780    -0.0590 h1         1 CIY       0.041033
     23 H3MB         2.3790     2.9250    -0.9700 h1         1 CIY       0.041033
@<TRIPOS>BOND
     1     1     2 ar  
     2     1     8 ar  
     3     1     9 1   
     4     2     3 ar  
     5     2    14 1   
     6     3     4 1   
     7     3     5 ar  
     8     4    13 1   
     9     5     6 1   
    10     5     7 ar  
    11     6    15 1   
    12     7     8 ar  
    13     7    16 1   
    14     8    17 1   
    15     9    10 2   
    16     9    18 1   
    17    10    11 1   
    18    10    19 1   
    19    11    12 2   
    20    11    20 1   
    21    13    21 1   
    22    13    22 1   
    23    13    23 1   
@<TRIPOS>SUBSTRUCTURE
     1 CIY         1 TEMP              0 ****  ****    0 ROOT
