@<TRIPOS>MOLECULE
CIY
   23    23     1     0     0
SMALL
abcg2


@<TRIPOS>ATOM
      1 C1          -0.5430    -0.0400     0.0160 ca         1 CIY      -0.082800
      2 C2           0.5540     0.8360    -0.0090 ca         1 CIY      -0.147000
      3 C3           1.8530     0.3640     0.0340 ca         1 CIY       0.105100
      4 O3           2.9590     1.1290     0.0140 os         1 CIY      -0.320100
      5 C4           2.0770    -1.0240     0.1030 ca         1 CIY       0.130100
      6 O4           3.3540    -1.4310     0.1430 oh         1 CIY      -0.508100
      7 C5           0.9940    -1.8920     0.1270 ca         1 CIY      -0.188000
      8 C6          -0.3030    -1.4100     0.0840 ca         1 CIY      -0.070000
      9 C7          -1.8760     0.5280    -0.0300 ce         1 CIY      -0.077200
     10 C8          -3.0510    -0.1260    -0.0300 cf         1 CIY      -0.327200
     11 C9          -4.2830     0.6400    -0.0770 c          1 CIY       0.568100
     12 O9          -5.3990     0.1610    -0.0810 o          1 CIY      -0.519100
     13 C3M          2.8000     2.5320    -0.0550 c3         1 CIY       0.144900
     14 H2           0.3640     1.9000    -0.0630 ha         1 CIY       0.120000
     15 HO4          3.3970    -2.3930     0.1920 ho         1 CIY       0.464000
     16 H5           1.1670    -2.9610     0.1810 ha         1 CIY       0.119000
     17 H6          -1.1210    -2.1180     0.1060 ha         1 CIY       0.121000
     18 H7          -1.9130     1.6150    -0.0670 ha         1 CIY       0.168000
     19 H8          -3.1230    -1.2080     0.0040 ha         1 CIY       0.198000
     20 H9          -4.1400     1.7360    -0.1100 h4         1 CIY      -0.022800
     21 H3M          2.2460     2.9220     0.8030 h1         1 CIY       0.041033
     22 H3MA         3.8000     2.9570    -0.0510 h1         1 CIY       0.041033
     23 H3MB         2.2890     2.8390    -0.9730 h1         1 CIY       0.041033
@<TRIPOS>BOND
     1     1     2 ar  
     2     1     8 ar  
     3     1     9 1   
     4     2     3 ar  
     5     2    14 1   
     6     3     4 1   
     7     3     5 ar  
     8     4    13 1   
     9     5     6 1   
    10     5     7 ar  
    11     6    15 1   
    12     7     8 ar  
    13     7    16 1   
    14     8    17 1   
    15     9    10 2   
    16     9    18 1   
    17    10    11 1   
    18    10    19 1   
    19    11    12 2   
    20    11    20 1   
    21    13    21 1   
    22    13    22 1   
    23    13    23 1   
@<TRIPOS>SUBSTRUCTURE
     1 CIY         1 TEMP              0 ****  ****    0 ROOT
