@<TRIPOS>MOLECULE
CIZ
   13    12     1     0     0
SMALL
bcc


@<TRIPOS>ATOM
      1 O4           1.7290    -0.9960     1.0300 o          1 CIZ      -0.866300
      2 C5           1.3490    -0.5420    -0.0650 c          1 CIZ       0.975800
      3 O3           1.5610    -1.0020    -1.1990 o          1 CIZ      -0.866300
      4 C3           0.7070     0.8300    -0.0100 ce         1 CIZ      -0.184400
      5 C4           1.7110     1.9470    -0.0590 c3         1 CIZ      -0.029900
      6 C2          -0.6080     1.0610     0.0680 cf         1 CIZ      -0.254200
      7 C1          -1.6630    -0.0130     0.1130 c          1 CIZ       0.912800
      8 O1          -2.8510     0.4010     0.1500 o          1 CIZ      -0.862300
      9 O2          -1.2810    -1.2150     0.1490 o          1 CIZ      -0.862300
     10 H2           2.3720     1.8370    -0.9180 hc         1 CIZ      -0.003633
     11 H3           1.2360     2.9340    -0.1090 hc         1 CIZ      -0.003633
     12 H4           2.3460     1.9230     0.8280 hc         1 CIZ      -0.003633
     13 H5          -0.9560     2.0950     0.0850 ha         1 CIZ       0.048000
@<TRIPOS>BOND
     1     1     2 1   
     2     2     3 1   
     3     2     4 1   
     4     4     5 1   
     5     4     6 2   
     6     5    10 1   
     7     5    11 1   
     8     5    12 1   
     9     6     7 1   
    10     6    13 1   
    11     7     8 1   
    12     7     9 1   
@<TRIPOS>SUBSTRUCTURE
     1 CIZ         1 TEMP              0 ****  ****    0 ROOT
