@<TRIPOS>MOLECULE
CIZ
   13    12     1     0     0
SMALL
No Charge or Current Charge


@<TRIPOS>ATOM
      1 O4           2.6690    -0.6460     0.1960 o          1 CIZ      -0.761000
      2 C5           1.4920    -0.5840    -0.1390 c          1 CIZ       0.765200
      3 O3           0.9480    -1.5180    -0.7070 o          1 CIZ      -0.761000
      4 C3           0.7680     0.7550     0.0080 ce         1 CIZ      -0.184400
      5 C4           1.6930     1.9670     0.1260 c3         1 CIZ      -0.029900
      6 C2          -0.5980     0.9820    -0.0190 cf         1 CIZ      -0.304200
      7 C1          -1.7550     0.0280    -0.0050 c          1 CIZ       0.702200
      8 O1          -2.8530     0.5110    -0.2270 o          1 CIZ      -0.757000
      9 O2          -1.6110    -1.1200     0.3760 o          1 CIZ      -0.757000
     10 H2           2.5030     1.9270    -0.6120 hc         1 CIZ      -0.003633
     11 H3           1.1640     2.9140    -0.0400 hc         1 CIZ      -0.003633
     12 H4           2.1480     2.0210     1.1220 hc         1 CIZ      -0.003633
     13 H5          -0.9150     2.0230    -0.0150 ha         1 CIZ       0.098000
@<TRIPOS>BOND
     1     1     2 1   
     2     2     3 1   
     3     2     4 1   
     4     4     5 1   
     5     4     6 2   
     6     5    10 1   
     7     5    11 1   
     8     5    12 1   
     9     6     7 1   
    10     6    13 1   
    11     7     8 1   
    12     7     9 1   
@<TRIPOS>SUBSTRUCTURE
     1 CIZ         1 TEMP              0 ****  ****    0 ROOT
