@<TRIPOS>MOLECULE
CJ0
   30    31     1     0     0
SMALL
abcg2


@<TRIPOS>ATOM
      1 N1          28.3910     9.6780   -14.9870 nb         1 CJ0      -0.351000
      2 N3          26.2360     9.3240   -15.9310 nb         1 CJ0      -0.351000
      3 C2          27.0800     9.8830   -15.0720 ca         1 CJ0       0.432900
      4 C4          26.7790     8.4830   -16.8210 ca         1 CJ0       0.437900
      5 C5          28.1490     8.1970   -16.8400 ca         1 CJ0      -0.409000
      6 C6          28.9300     8.8230   -15.8630 ca         1 CJ0       0.438900
      7 CAA         32.2570     7.2320   -16.1270 c6         1 CJ0       0.141600
      8 CAC         32.3490     8.8540   -14.4860 c6         1 CJ0       0.141600
      9 CAD         30.9930     7.8210   -16.7280 c6         1 CJ0       0.180800
     10 CAF         31.0990     9.5330   -15.0060 c6         1 CJ0       0.180800
     11 CAO         26.3270     7.0690   -18.7840 c3         1 CJ0       0.224100
     12 NAE         30.2690     8.5870   -15.7340 nh         1 CJ0      -0.771300
     13 NAM         26.5560    10.7920   -14.2090 nv         1 CJ0      -1.052900
     14 NAN         25.9280     7.9250   -17.7010 nu         1 CJ0      -0.939100
     15 OAB         33.0640     8.2120   -15.5180 os         1 CJ0      -0.445000
     16 H1          28.5640     7.5360   -17.5830 ha         1 CJ0       0.127000
     17 H2          31.9840     6.4550   -15.3980 h1         1 CJ0       0.052700
     18 H3          32.8440     6.7590   -16.9150 h1         1 CJ0       0.052700
     19 H4          32.0790     8.1320   -13.7020 h1         1 CJ0       0.052700
     20 H5          33.0090     9.6000   -14.0410 h1         1 CJ0       0.052700
     21 H6          31.2420     8.4420   -17.5990 h1         1 CJ0       0.057450
     22 H7          30.3900     6.9860   -17.0820 h1         1 CJ0       0.057450
     23 H8          31.3790    10.3740   -15.6550 h1         1 CJ0       0.057450
     24 H9          30.5400     9.9400   -14.1680 h1         1 CJ0       0.057450
     25 H10         25.4430     6.8000   -19.3550 h1         1 CJ0       0.036033
     26 H11         27.0310     7.5590   -19.4630 h1         1 CJ0       0.036033
     27 H12         26.7900     6.1460   -18.4280 h1         1 CJ0       0.036033
     28 H13         25.5610    10.7750   -14.0690 hn         1 CJ0       0.481500
     29 H14         27.1060    11.0330   -13.4020 hn         1 CJ0       0.481500
     30 H15         24.9700     8.2230   -17.6560 hn         1 CJ0       0.503000
@<TRIPOS>BOND
     1     1     3 ar  
     2     1     6 ar  
     3     2     3 ar  
     4     2     4 ar  
     5     3    13 1   
     6     4     5 ar  
     7     4    14 1   
     8     5     6 ar  
     9     5    16 1   
    10     6    12 1   
    11     7     9 1   
    12     7    15 1   
    13     7    17 1   
    14     7    18 1   
    15     8    10 1   
    16     8    15 1   
    17     8    19 1   
    18     8    20 1   
    19     9    12 1   
    20     9    21 1   
    21     9    22 1   
    22    10    12 1   
    23    10    23 1   
    24    10    24 1   
    25    11    14 1   
    26    11    25 1   
    27    11    26 1   
    28    11    27 1   
    29    13    28 1   
    30    13    29 1   
    31    14    30 1   
@<TRIPOS>SUBSTRUCTURE
     1 CJ0         1 TEMP              0 ****  ****    0 ROOT
