@<TRIPOS>MOLECULE
CJ0
   30    31     1     0     0
SMALL
No Charge or Current Charge


@<TRIPOS>ATOM
      1 N1          28.3090     9.5960   -14.8780 nb         1 CJ0      -0.351000
      2 N3          26.1790     9.3330   -15.9440 nb         1 CJ0      -0.351000
      3 C2          26.9990     9.8070   -15.0070 ca         1 CJ0       0.432900
      4 C4          26.7530     8.5560   -16.8650 ca         1 CJ0       0.437900
      5 C5          28.1150     8.2580   -16.8460 ca         1 CJ0      -0.409000
      6 C6          28.8800     8.8100   -15.8080 ca         1 CJ0       0.438900
      7 CAA         32.3420     7.1060   -15.9800 c6         1 CJ0       0.141600
      8 CAC         32.5350     9.0530   -14.5930 c6         1 CJ0       0.141600
      9 CAD         30.9740     7.5760   -16.5600 c6         1 CJ0       0.180800
     10 CAF         31.1790     9.6280   -15.1010 c6         1 CJ0       0.180800
     11 CAO         26.2430     7.1950   -18.9730 c3         1 CJ0       0.224100
     12 NAE         30.2710     8.5740   -15.6830 nh         1 CJ0      -0.771300
     13 NAM         26.4320    10.5930   -14.0690 nv         1 CJ0      -1.052900
     14 NAN         25.9030     8.0700   -17.8380 nu         1 CJ0      -0.939100
     15 OAB         33.1620     8.2350   -15.6060 os         1 CJ0      -0.445000
     16 H1          28.5550     7.6340   -17.6120 ha         1 CJ0       0.127000
     17 H2          32.1730     6.4740   -15.0960 h1         1 CJ0       0.052700
     18 H3          32.8760     6.5040   -16.7290 h1         1 CJ0       0.052700
     19 H4          32.3670     8.4460   -13.6910 h1         1 CJ0       0.052700
     20 H5          33.2110     9.8770   -14.3250 h1         1 CJ0       0.052700
     21 H6          31.1440     8.0080   -17.5570 h1         1 CJ0       0.057450
     22 H7          30.3520     6.6790   -16.6940 h1         1 CJ0       0.057450
     23 H8          31.3880    10.3960   -15.8600 h1         1 CJ0       0.057450
     24 H9          30.7040    10.1390   -14.2510 h1         1 CJ0       0.057450
     25 H10         25.3480     6.9800   -19.5730 h1         1 CJ0       0.036033
     26 H11         26.9870     7.6770   -19.6210 h1         1 CJ0       0.036033
     27 H12         26.6560     6.2430   -18.6140 h1         1 CJ0       0.036033
     28 H13         25.4190    10.5860   -13.9920 hn         1 CJ0       0.481500
     29 H14         26.9560    10.7790   -13.2180 hn         1 CJ0       0.481500
     30 H15         24.9290     8.3630   -17.7410 hn         1 CJ0       0.503000
@<TRIPOS>BOND
     1     1     3 ar  
     2     1     6 ar  
     3     2     3 ar  
     4     2     4 ar  
     5     3    13 1   
     6     4     5 ar  
     7     4    14 1   
     8     5     6 ar  
     9     5    16 1   
    10     6    12 1   
    11     7     9 1   
    12     7    15 1   
    13     7    17 1   
    14     7    18 1   
    15     8    10 1   
    16     8    15 1   
    17     8    19 1   
    18     8    20 1   
    19     9    12 1   
    20     9    21 1   
    21     9    22 1   
    22    10    12 1   
    23    10    23 1   
    24    10    24 1   
    25    11    14 1   
    26    11    25 1   
    27    11    26 1   
    28    11    27 1   
    29    13    28 1   
    30    13    29 1   
    31    14    30 1   
@<TRIPOS>SUBSTRUCTURE
     1 CJ0         1 TEMP              0 ****  ****    0 ROOT
