@<TRIPOS>MOLECULE
CJ2
   43    45     1     0     0
SMALL
No Charge or Current Charge


@<TRIPOS>ATOM
      1 C10        -69.8950   -71.6290  -101.8220 ca         1 CJ2      -0.175500
      2 C11        -71.5300   -72.6220  -100.3240 ca         1 CJ2      -0.175500
      3 C14        -69.6390   -69.4330   -99.9300 c3         1 CJ2       0.144900
      4 C16        -69.0920   -76.8840  -101.7430 c          1 CJ2       0.669700
      5 C20        -68.5420   -78.2520   -98.9580 ca         1 CJ2      -0.101000
      6 C22        -68.1800   -78.9390   -97.7870 ca         1 CJ2      -0.089000
      7 C23        -66.1810   -79.8050   -98.8900 ca         1 CJ2      -0.159300
      8 C24        -67.0070   -79.7100   -97.7500 ca         1 CJ2      -0.085000
      9 C25        -64.8910   -80.6340   -98.8560 c3         1 CJ2       0.343300
     10 C01        -67.9800   -76.5520  -104.0230 cc         1 CJ2       0.475300
     11 C02        -68.9760   -76.3530  -103.1210 cd         1 CJ2      -0.299600
     12 C06        -71.1190   -74.9410  -103.3580 c3         1 CJ2       0.138900
     13 C07        -70.9440   -73.7580  -102.4010 ca         1 CJ2      -0.182300
     14 C08        -70.0500   -72.7120  -102.7060 ca         1 CJ2      -0.048500
     15 C09        -71.6870   -73.7050  -101.2050 ca         1 CJ2      -0.048500
     16 C12        -70.6370   -71.5820  -100.6230 ca         1 CJ2       0.158100
     17 C19        -67.7260   -78.3290  -100.1070 ca         1 CJ2      -0.023000
     18 C21        -66.5500   -79.1020  -100.0590 ca         1 CJ2      -0.114000
     19 F26        -64.9470   -81.6440   -97.9580 f          1 CJ2      -0.114000
     20 F27        -64.6130   -81.2000  -100.0540 f          1 CJ2      -0.114000
     21 F28        -63.8250   -79.8710   -98.5250 f          1 CJ2      -0.114000
     22 N03        -68.2240   -75.9150  -105.1920 nc         1 CJ2      -0.431000
     23 N04        -69.8490   -75.5370  -103.8180 na         1 CJ2       0.159800
     24 N05        -69.3660   -75.2870  -105.0800 nd         1 CJ2      -0.168800
     25 N18        -68.0170   -77.6580  -101.3280 ns         1 CJ2      -0.125000
     26 O13        -70.5260   -70.5470   -99.7180 os         1 CJ2      -0.341100
     27 O17        -70.0690   -76.6560  -101.0430 o          1 CJ2      -0.567100
     28 H1         -69.1970   -70.8400  -102.0860 ha         1 CJ2       0.130000
     29 H2         -72.1040   -72.5890   -99.4010 ha         1 CJ2       0.130000
     30 H3         -69.7070   -68.7280   -99.0920 h1         1 CJ2       0.047367
     31 H4         -68.5980   -69.7720  -100.0050 h1         1 CJ2       0.047367
     32 H5         -69.9020   -68.8940  -100.8490 h1         1 CJ2       0.047367
     33 H6         -69.4540   -77.6630   -98.9440 ha         1 CJ2       0.152000
     34 H7         -68.8100   -78.8720   -96.9030 ha         1 CJ2       0.125000
     35 H8         -66.7430   -80.2270   -96.8300 ha         1 CJ2       0.131000
     36 H10        -71.6820   -74.6050  -104.2380 h1         1 CJ2       0.088700
     37 H11        -71.7130   -75.7290  -102.8810 h1         1 CJ2       0.088700
     38 H12        -69.4740   -72.7310  -103.6290 ha         1 CJ2       0.123500
     39 H13        -72.3820   -74.5040  -100.9540 ha         1 CJ2       0.123500
     40 H14        -65.9140   -79.1550  -100.9410 ha         1 CJ2       0.127000
     41 H15        -67.2970   -77.7620  -102.0310 hn         1 CJ2       0.163000
     42 H9         -66.4100   -77.1840  -104.7230 ho         1 CJ2       0.491000
     43 O15        -66.8720   -77.2770  -103.8630 oh         1 CJ2      -0.627300
@<TRIPOS>BOND
     1     1    14 ar  
     2     1    16 ar  
     3     1    28 1   
     4     2    15 ar  
     5     2    16 ar  
     6     2    29 1   
     7     3    26 1   
     8     3    30 1   
     9     3    31 1   
    10     3    32 1   
    11     4    11 1   
    12     4    25 1   
    13     4    27 2   
    14     5     6 ar  
    15     5    17 ar  
    16     5    33 1   
    17     6     8 ar  
    18     6    34 1   
    19     7     8 ar  
    20     7     9 1   
    21     7    18 ar  
    22     8    35 1   
    23     9    19 1   
    24     9    20 1   
    25     9    21 1   
    26    10    11 2   
    27    10    22 1   
    28    10    43 1   
    29    11    23 1   
    30    12    13 1   
    31    12    23 1   
    32    12    36 1   
    33    12    37 1   
    34    13    14 ar  
    35    13    15 ar  
    36    14    38 1   
    37    15    39 1   
    38    16    26 1   
    39    17    18 ar  
    40    17    25 1   
    41    18    40 1   
    42    22    24 2   
    43    23    24 1   
    44    25    41 1   
    45    42    43 1   
@<TRIPOS>SUBSTRUCTURE
     1 CJ2         1 TEMP              0 ****  ****    0 ROOT
