@<TRIPOS>MOLECULE
CJ2
   43    45     1     0     0
SMALL
abcg2


@<TRIPOS>ATOM
      1 C10        -68.4860   -73.3530  -101.3540 ca         1 CJ2      -0.175500
      2 C11        -70.2170   -74.2250   -99.9150 ca         1 CJ2      -0.175500
      3 C14        -66.9740   -72.7940   -99.0390 c3         1 CJ2       0.144900
      4 C16        -69.8990   -77.2580  -102.5100 c          1 CJ2       0.669700
      5 C20        -69.3770   -78.0860   -99.6320 ca         1 CJ2      -0.101000
      6 C22        -69.0850   -78.2170   -98.2790 ca         1 CJ2      -0.089000
      7 C23        -67.0520   -76.9870   -98.5790 ca         1 CJ2      -0.159300
      8 C24        -67.9300   -77.6720   -97.7390 ca         1 CJ2      -0.085000
      9 C25        -65.8070   -76.3890   -97.9910 c3         1 CJ2       0.343300
     10 C01        -69.1520   -77.1800  -105.0400 cc         1 CJ2       0.475300
     11 C02        -69.8110   -76.7490  -103.9070 cd         1 CJ2      -0.299600
     12 C06        -71.2920   -74.7250  -103.5250 c3         1 CJ2       0.138900
     13 C07        -70.5090   -74.2840  -102.3150 ca         1 CJ2      -0.182300
     14 C08        -69.2650   -73.6770  -102.4590 ca         1 CJ2      -0.048500
     15 C09        -70.9760   -74.5470  -101.0270 ca         1 CJ2      -0.048500
     16 C12        -68.9600   -73.6360  -100.0710 ca         1 CJ2       0.158100
     17 C19        -68.4990   -77.3860  -100.4610 ca         1 CJ2      -0.023000
     18 C21        -67.3290   -76.8410   -99.9270 ca         1 CJ2      -0.114000
     19 F26        -65.0790   -77.3030   -97.3060 f          1 CJ2      -0.114000
     20 F27        -64.9890   -75.8590   -98.9210 f          1 CJ2      -0.114000
     21 F28        -66.0870   -75.3990   -97.1080 f          1 CJ2      -0.114000
     22 N03        -69.4680   -76.3680  -106.0680 nc         1 CJ2      -0.431000
     23 N04        -70.5060   -75.6610  -104.3390 na         1 CJ2       0.159800
     24 N05        -70.2840   -75.4330  -105.6260 nd         1 CJ2      -0.168800
     25 N18        -68.7250   -77.1770  -101.8310 ns         1 CJ2      -0.125000
     26 O13        -68.2690   -73.3860   -98.9300 os         1 CJ2      -0.341100
     27 O17        -70.9540   -77.6750  -102.0540 o          1 CJ2      -0.567100
     28 H1         -67.5190   -72.8960  -101.5020 ha         1 CJ2       0.130000
     29 H2         -70.5720   -74.4480   -98.9170 ha         1 CJ2       0.130000
     30 H3         -66.6070   -72.6940   -98.0220 h1         1 CJ2       0.047367
     31 H4         -66.2990   -73.4330   -99.6110 h1         1 CJ2       0.047367
     32 H5         -67.0330   -71.8090   -99.5090 h1         1 CJ2       0.047367
     33 H6         -70.2790   -78.5120  -100.0390 ha         1 CJ2       0.152000
     34 H7         -69.7720   -78.7570   -97.6410 ha         1 CJ2       0.125000
     35 H8         -67.7110   -77.7790   -96.6850 ha         1 CJ2       0.131000
     36 H10        -71.5320   -73.8990  -104.1930 h1         1 CJ2       0.088700
     37 H11        -72.2190   -75.2130  -103.2280 h1         1 CJ2       0.088700
     38 H12        -68.8780   -73.4730  -103.4500 ha         1 CJ2       0.123500
     39 H13        -71.9320   -75.0370  -100.8950 ha         1 CJ2       0.123500
     40 H14        -66.6530   -76.2930  -100.5700 ha         1 CJ2       0.127000
     41 H15        -67.9690   -76.7240  -102.3250 hn         1 CJ2       0.163000
     42 H9         -68.0330   -78.3200  -106.0620 ho         1 CJ2       0.491000
     43 O15        -68.3330   -78.2380  -105.1440 oh         1 CJ2      -0.627300
@<TRIPOS>BOND
     1     1    14 ar  
     2     1    16 ar  
     3     1    28 1   
     4     2    15 ar  
     5     2    16 ar  
     6     2    29 1   
     7     3    26 1   
     8     3    30 1   
     9     3    31 1   
    10     3    32 1   
    11     4    11 1   
    12     4    25 1   
    13     4    27 2   
    14     5     6 ar  
    15     5    17 ar  
    16     5    33 1   
    17     6     8 ar  
    18     6    34 1   
    19     7     8 ar  
    20     7     9 1   
    21     7    18 ar  
    22     8    35 1   
    23     9    19 1   
    24     9    20 1   
    25     9    21 1   
    26    10    11 2   
    27    10    22 1   
    28    10    43 1   
    29    11    23 1   
    30    12    13 1   
    31    12    23 1   
    32    12    36 1   
    33    12    37 1   
    34    13    14 ar  
    35    13    15 ar  
    36    14    38 1   
    37    15    39 1   
    38    16    26 1   
    39    17    18 ar  
    40    17    25 1   
    41    18    40 1   
    42    22    24 2   
    43    23    24 1   
    44    25    41 1   
    45    42    43 1   
@<TRIPOS>SUBSTRUCTURE
     1 CJ2         1 TEMP              0 ****  ****    0 ROOT
