@<TRIPOS>MOLECULE
CJ4
   58    61     1     0     0
SMALL
abcg2


@<TRIPOS>ATOM
      1 C01         -9.4830     3.3690    -1.4150 c3         1 CJ4       0.144100
      2 C03         -7.5870     2.5350    -0.1820 c3         1 CJ4       0.159800
      3 C04         -6.1090     2.1850    -0.2480 c3         1 CJ4      -0.105400
      4 C05         -5.5990     1.6570     1.0870 c3         1 CJ4       0.242800
      5 C07         -3.2380     2.3730     1.4650 c3         1 CJ4       0.231100
      6 C08         -3.7360     0.1500     0.6400 ca         1 CJ4       0.417900
      7 C10         -4.1500    -1.8990    -0.2200 ca         1 CJ4       0.147900
      8 C11         -2.8160    -2.1870    -0.2190 ca         1 CJ4      -0.076000
      9 C13         -1.9290    -1.2040     0.2550 ca         1 CJ4       0.422900
     10 C16          0.3210    -2.3350    -0.2570 cy         1 CJ4       0.252300
     11 C17          1.4810    -1.4200     0.2070 cy         1 CJ4      -0.207700
     12 C18          0.4090    -0.4020     0.6600 cy         1 CJ4       0.252300
     13 C19          2.3900    -0.9430    -0.8970 c          1 CJ4       0.605100
     14 C22          4.7130    -0.9050    -1.7100 c3         1 CJ4       0.180200
     15 C23          6.0270    -0.7130    -1.0530 cc         1 CJ4      -0.232300
     16 C24          7.1890    -1.4400    -1.1050 cd         1 CJ4      -0.008400
     17 C26          7.6150     0.1590     0.2280 cc         1 CJ4      -0.071000
     18 C27          8.1530     1.0990     1.1310 cc         1 CJ4      -0.077000
     19 C28          7.3730     2.1310     1.5610 cd         1 CJ4      -0.100000
     20 C29          6.0350     2.2580     1.1050 cd         1 CJ4      -0.144000
     21 C30          5.5200     1.3510     0.2380 cc         1 CJ4      -0.107000
     22 F12         -2.3560    -3.3820    -0.6450 f          1 CJ4      -0.180000
     23 N02         -8.0820     3.0040    -1.4620 n7         1 CJ4      -0.853400
     24 N06         -4.1840     1.3450     1.0880 nh         1 CJ4      -0.778300
     25 N09         -4.6380    -0.7340     0.2010 nb         1 CJ4      -0.264000
     26 N14         -2.4140    -0.0430     0.6810 nb         1 CJ4      -0.322000
     27 N15         -0.6070    -1.3810     0.3290 nn         1 CJ4      -0.790300
     28 N21          3.6880    -1.2480    -0.7410 ns         1 CJ4      -0.511900
     29 N25          8.1600    -0.9080    -0.3270 nd         1 CJ4      -0.289600
     30 N31          6.3040     0.3200    -0.1890 na         1 CJ4       0.141100
     31 O20          1.9580    -0.3250    -1.8590 o          1 CJ4      -0.595100
     32 H1         -10.0900     2.4860    -1.2110 h1         1 CJ4       0.029033
     33 H2          -9.7290     4.1170    -0.6470 h1         1 CJ4       0.029033
     34 H3          -9.7960     3.7670    -2.3810 h1         1 CJ4       0.029033
     35 H4          -8.1580     1.6430     0.0970 h1         1 CJ4       0.027200
     36 H5          -7.7540     3.2670     0.6260 h1         1 CJ4       0.027200
     37 H6          -5.9460     1.4320    -1.0220 hc         1 CJ4       0.056200
     38 H7          -5.5340     3.0720    -0.5340 hc         1 CJ4       0.056200
     39 H8          -5.7740     2.3970     1.8700 h1         1 CJ4       0.054700
     40 H9          -6.1630     0.7670     1.3690 h1         1 CJ4       0.054700
     41 H10         -2.7030     2.1220     2.3840 h1         1 CJ4       0.039033
     42 H11         -2.4950     2.5490     0.6870 h1         1 CJ4       0.039033
     43 H12         -3.7800     3.3010     1.6320 h1         1 CJ4       0.039033
     44 H13         -4.8630    -2.6370    -0.5760 h4         1 CJ4       0.031100
     45 H14          0.2300    -2.4320    -1.3410 h1         1 CJ4       0.070200
     46 H15          0.3100    -3.3260     0.1960 h1         1 CJ4       0.070200
     47 H16          2.0350    -1.8460     1.0430 hc         1 CJ4       0.075700
     48 H17          0.4430    -0.1220     1.7130 h1         1 CJ4       0.070200
     49 H18          0.3580     0.5030     0.0510 h1         1 CJ4       0.070200
     50 H19          4.3980    -0.0000    -2.2350 h1         1 CJ4       0.070200
     51 H20          4.8170    -1.6880    -2.4660 h1         1 CJ4       0.070200
     52 H21          7.3510    -2.3360    -1.6870 h4         1 CJ4       0.227000
     53 H22          9.1760     0.9780     1.4610 ha         1 CJ4       0.145000
     54 H23          7.7700     2.8610     2.2530 ha         1 CJ4       0.126000
     55 H24          5.4120     3.0730     1.4440 ha         1 CJ4       0.133000
     56 H25          4.5120     1.3980    -0.1440 h4         1 CJ4       0.152000
     57 H26         -7.5440     3.8160    -1.7400 hn         1 CJ4       0.403000
     58 H28          3.9620    -1.8250     0.0390 hn         1 CJ4       0.320500
@<TRIPOS>BOND
     1     1    23 1   
     2     1    32 1   
     3     1    33 1   
     4     1    34 1   
     5     2     3 1   
     6     2    23 1   
     7     2    35 1   
     8     2    36 1   
     9     3     4 1   
    10     3    37 1   
    11     3    38 1   
    12     4    24 1   
    13     4    39 1   
    14     4    40 1   
    15     5    24 1   
    16     5    41 1   
    17     5    42 1   
    18     5    43 1   
    19     6    24 1   
    20     6    25 ar  
    21     6    26 ar  
    22     7     8 ar  
    23     7    25 ar  
    24     7    44 1   
    25     8     9 ar  
    26     8    22 1   
    27     9    26 ar  
    28     9    27 1   
    29    10    11 1   
    30    10    27 1   
    31    10    45 1   
    32    10    46 1   
    33    11    12 1   
    34    11    13 1   
    35    11    47 1   
    36    12    27 1   
    37    12    48 1   
    38    12    49 1   
    39    13    28 1   
    40    13    31 2   
    41    14    15 1   
    42    14    28 1   
    43    14    50 1   
    44    14    51 1   
    45    15    16 2   
    46    15    30 1   
    47    16    29 1   
    48    16    52 1   
    49    17    18 1   
    50    17    29 2   
    51    17    30 1   
    52    18    19 2   
    53    18    53 1   
    54    19    20 1   
    55    19    54 1   
    56    20    21 2   
    57    20    55 1   
    58    21    30 1   
    59    21    56 1   
    60    23    57 1   
    61    28    58 1   
@<TRIPOS>SUBSTRUCTURE
     1 CJ4         1 TEMP              0 ****  ****    0 ROOT
