@<TRIPOS>MOLECULE
CJ4
   58    61     1     0     0
SMALL
No Charge or Current Charge


@<TRIPOS>ATOM
      1 C01         -9.4830     3.4100    -1.7890 c3         1 CJ4       0.144100
      2 C03         -7.6890     2.5030    -0.3210 c3         1 CJ4       0.159800
      3 C04         -6.1820     2.1940    -0.2780 c3         1 CJ4      -0.105400
      4 C05         -5.7480     1.5720     1.0640 c3         1 CJ4       0.242800
      5 C07         -3.4190     2.3310     1.6960 c3         1 CJ4       0.231100
      6 C08         -3.7520     0.0490     0.6500 ca         1 CJ4       0.417900
      7 C10         -4.0820    -1.9920    -0.3550 ca         1 CJ4       0.147900
      8 C11         -2.7100    -2.2600    -0.2580 ca         1 CJ4      -0.076000
      9 C13         -1.8900    -1.2700     0.3350 ca         1 CJ4       0.422900
     10 C16          0.4380    -2.4550     0.0110 cy         1 CJ4       0.252300
     11 C17          1.5610    -1.5920     0.6850 cy         1 CJ4      -0.207700
     12 C18          0.5180    -0.4600     0.9830 cy         1 CJ4       0.252300
     13 C19          2.1040    -0.9530    -0.6500 c          1 CJ4       0.605100
     14 C22          4.3650    -0.4600    -1.6250 c3         1 CJ4       0.180200
     15 C23          5.7960    -0.4670    -1.1660 cc         1 CJ4      -0.232300
     16 C24          6.8380    -1.3160    -1.4950 cd         1 CJ4      -0.008400
     17 C26          7.7080     0.0930    -0.1020 cc         1 CJ4      -0.071000
     18 C27          8.5130     0.8670     0.7770 cc         1 CJ4      -0.077000
     19 C28          7.9300     1.9270     1.4310 cd         1 CJ4      -0.100000
     20 C29          6.5300     2.2070     1.2050 cd         1 CJ4      -0.144000
     21 C30          5.7290     1.4540     0.3450 cc         1 CJ4      -0.107000
     22 F12         -2.2190    -3.4360    -0.7240 f          1 CJ4      -0.180000
     23 N02         -8.0530     3.0880    -1.6240 n7         1 CJ4      -0.853400
     24 N06         -4.2940     1.2710     1.1300 nh         1 CJ4      -0.778300
     25 N09         -4.6070    -0.8380     0.0980 nb         1 CJ4      -0.264000
     26 N14         -2.4220    -0.1210     0.7860 nb         1 CJ4      -0.322000
     27 N15         -0.5240    -1.4140     0.4900 nn         1 CJ4      -0.790300
     28 N21          3.4770    -0.9680    -0.5850 ns         1 CJ4      -0.511900
     29 N25          8.0140    -0.9620    -0.8340 nd         1 CJ4      -0.289600
     30 N31          6.3960     0.4010    -0.2930 na         1 CJ4       0.141100
     31 O20          1.5830    -0.4800    -1.6550 o          1 CJ4      -0.595100
     32 H1         -10.1030     2.5090    -1.6760 h1         1 CJ4       0.029033
     33 H2          -9.8080     4.1460    -1.0410 h1         1 CJ4       0.029033
     34 H3          -9.6720     3.8300    -2.7850 h1         1 CJ4       0.029033
     35 H4          -8.2500     1.5740    -0.1500 h1         1 CJ4       0.027200
     36 H5          -7.9370     3.2000     0.4930 h1         1 CJ4       0.027200
     37 H6          -5.9300     1.5050    -1.0920 hc         1 CJ4       0.056200
     38 H7          -5.6140     3.1170    -0.4440 hc         1 CJ4       0.056200
     39 H8          -6.0190     2.2650     1.8730 h1         1 CJ4       0.054700
     40 H9          -6.3370     0.6620     1.2470 h1         1 CJ4       0.054700
     41 H10         -2.9330     1.9790     2.6150 h1         1 CJ4       0.039033
     42 H11         -2.6450     2.6180     0.9720 h1         1 CJ4       0.039033
     43 H12         -3.9960     3.2340     1.9410 h1         1 CJ4       0.039033
     44 H13         -4.7730    -2.7070    -0.7990 h4         1 CJ4       0.031100
     45 H14          0.4860    -2.6020    -1.0760 h1         1 CJ4       0.070200
     46 H15          0.3140    -3.4340     0.4910 h1         1 CJ4       0.070200
     47 H16          2.2490    -1.9870     1.4380 hc         1 CJ4       0.075700
     48 H17          0.4410    -0.2260     2.0520 h1         1 CJ4       0.070200
     49 H18          0.6080     0.4820     0.4250 h1         1 CJ4       0.070200
     50 H19          4.0660     0.5630    -1.8950 h1         1 CJ4       0.070200
     51 H20          4.2620    -1.0890    -2.5190 h1         1 CJ4       0.070200
     52 H21          6.8070    -2.1660    -2.1730 h4         1 CJ4       0.227000
     53 H22          9.5600     0.6140     0.9180 ha         1 CJ4       0.145000
     54 H23          8.5140     2.5410     2.1100 ha         1 CJ4       0.126000
     55 H24          6.0780     3.0440     1.7300 ha         1 CJ4       0.133000
     56 H25          4.6790     1.6160     0.1430 h4         1 CJ4       0.152000
     57 H26         -7.5140     3.9550    -1.7470 hn         1 CJ4       0.403000
     58 H28          3.8950    -1.3650     0.2470 hn         1 CJ4       0.320500
@<TRIPOS>BOND
     1     1    23 1   
     2     1    32 1   
     3     1    33 1   
     4     1    34 1   
     5     2     3 1   
     6     2    23 1   
     7     2    35 1   
     8     2    36 1   
     9     3     4 1   
    10     3    37 1   
    11     3    38 1   
    12     4    24 1   
    13     4    39 1   
    14     4    40 1   
    15     5    24 1   
    16     5    41 1   
    17     5    42 1   
    18     5    43 1   
    19     6    24 1   
    20     6    25 ar  
    21     6    26 ar  
    22     7     8 ar  
    23     7    25 ar  
    24     7    44 1   
    25     8     9 ar  
    26     8    22 1   
    27     9    26 ar  
    28     9    27 1   
    29    10    11 1   
    30    10    27 1   
    31    10    45 1   
    32    10    46 1   
    33    11    12 1   
    34    11    13 1   
    35    11    47 1   
    36    12    27 1   
    37    12    48 1   
    38    12    49 1   
    39    13    28 1   
    40    13    31 2   
    41    14    15 1   
    42    14    28 1   
    43    14    50 1   
    44    14    51 1   
    45    15    16 2   
    46    15    30 1   
    47    16    29 1   
    48    16    52 1   
    49    17    18 1   
    50    17    29 2   
    51    17    30 1   
    52    18    19 2   
    53    18    53 1   
    54    19    20 1   
    55    19    54 1   
    56    20    21 2   
    57    20    55 1   
    58    21    30 1   
    59    21    56 1   
    60    23    57 1   
    61    28    58 1   
@<TRIPOS>SUBSTRUCTURE
     1 CJ4         1 TEMP              0 ****  ****    0 ROOT
