@<TRIPOS>MOLECULE
CJ5
   63    67     1     0     0
SMALL
No Charge or Current Charge


@<TRIPOS>ATOM
      1 O01         -3.9850    -0.8960     1.3200 o          1 CJ5      -0.601100
      2 C02         -4.2370    -0.1030     0.4210 c          1 CJ5       0.664100
      3 N03         -5.5140     0.1540    -0.0590 ns         1 CJ5      -0.168000
      4 C04         -6.7930    -0.3610     0.2910 ca         1 CJ5      -0.009000
      5 C05         -6.9970    -1.3380     1.2900 ca         1 CJ5      -0.096000
      6 C06         -8.2930    -1.8000     1.5720 ca         1 CJ5      -0.093000
      7 C07         -9.3970    -1.2930     0.8690 ca         1 CJ5      -0.086000
      8 C08         -9.2160    -0.3090    -0.1260 ca         1 CJ5      -0.168300
      9 C09        -10.4160     0.2440    -0.9080 c3         1 CJ5       0.355300
     10 F10        -11.5680     0.1810    -0.2020 f          1 CJ5      -0.114000
     11 F11        -10.2480     1.5410    -1.2550 f          1 CJ5      -0.114000
     12 F12        -10.6170    -0.4480    -2.0520 f          1 CJ5      -0.114000
     13 C13         -7.9070     0.1410    -0.4090 ca         1 CJ5      -0.125000
     14 N14         -3.2830     0.6560    -0.2460 ns         1 CJ5      -0.162000
     15 C15         -1.8660     0.7430    -0.1240 ca         1 CJ5      -0.057000
     16 C16         -1.1060    -0.0520     0.7610 ca         1 CJ5      -0.101500
     17 C17          0.2930     0.0930     0.8210 ca         1 CJ5      -0.135000
     18 C18         -1.1980     1.6690    -0.9470 ca         1 CJ5      -0.101500
     19 C19          0.2000     1.8090    -0.8820 ca         1 CJ5      -0.135000
     20 C20          0.9570     1.0300     0.0130 ca         1 CJ5       0.310000
     21 N21          2.3510     1.1250     0.1010 nu         1 CJ5      -0.928900
     22 C22          3.2790     2.1230    -0.1510 ca         1 CJ5       0.421900
     23 N23          2.8410     3.3630    -0.4300 nb         1 CJ5      -0.267000
     24 C24          3.7840     4.2960    -0.6500 ca         1 CJ5       0.170900
     25 C25          5.1480     3.9790    -0.5860 ca         1 CJ5      -0.332000
     26 C26          5.4910     2.6580    -0.2900 ca         1 CJ5       0.433900
     27 N27          6.8280     2.3110    -0.2020 nu         1 CJ5      -0.886800
     28 C28          7.5260     1.1510    -0.0870 cc         1 CJ5       0.502900
     29 N29          8.8210     1.2050     0.0900 nd         1 CJ5      -0.582800
     30 N30          9.1690    -0.1510     0.1410 na         1 CJ5       0.000800
     31 C31          8.0490    -0.9770    -0.0190 cd         1 CJ5      -0.118300
     32 C32          7.8740    -2.4840    -0.0560 c5         1 CJ5      -0.013400
     33 C33          8.8040    -3.1150    -1.1210 c5         1 CJ5      -0.076400
     34 C34          8.7410    -4.6210    -0.7370 c5         1 CJ5      -0.082400
     35 C35          8.5210    -4.6330     0.8130 c5         1 CJ5      -0.082400
     36 C36          8.4660    -3.1320     1.2200 c5         1 CJ5      -0.076400
     37 C37          6.9890    -0.1390    -0.1700 cc         1 CJ5      -0.217000
     38 N38          4.5550     1.7240    -0.0630 nb         1 CJ5      -0.315000
     39 H031        -5.5440     0.8400    -0.8030 hn         1 CJ5       0.150000
     40 H051        -6.1700    -1.7560     1.8540 ha         1 CJ5       0.149000
     41 H061        -8.4420    -2.5570     2.3390 ha         1 CJ5       0.123000
     42 H071       -10.3910    -1.6710     1.1000 ha         1 CJ5       0.133000
     43 H131        -7.7520     0.8900    -1.1840 ha         1 CJ5       0.123000
     44 H141        -3.6650     1.2660    -0.9570 hn         1 CJ5       0.148000
     45 H161        -1.5720    -0.7870     1.4090 ha         1 CJ5       0.123000
     46 H171         0.8610    -0.5270     1.5090 ha         1 CJ5       0.134500
     47 H181        -1.7620     2.2820    -1.6460 ha         1 CJ5       0.123000
     48 H191         0.6870     2.5150    -1.5470 ha         1 CJ5       0.134500
     49 H211         2.7890     0.3030     0.5140 hn         1 CJ5       0.508000
     50 H241         3.4420     5.3050    -0.8760 h4         1 CJ5       0.020100
     51 H251         5.9040     4.7390    -0.7640 ha         1 CJ5       0.134000
     52 H271         7.4600     3.1040    -0.2340 hn         1 CJ5       0.514000
     53 H301        10.1330    -0.4570     0.2750 hn         1 CJ5       0.373000
     54 H321         6.8270    -2.7810    -0.2090 hc         1 CJ5       0.069700
     55 H332         8.4570    -2.9290    -2.1440 hc         1 CJ5       0.047700
     56 H331         9.8300    -2.7330    -1.0510 hc         1 CJ5       0.047700
     57 H341         7.9100    -5.1220    -1.2480 hc         1 CJ5       0.045950
     58 H342         9.6560    -5.1500    -1.0290 hc         1 CJ5       0.045950
     59 H351         7.5840    -5.1430     1.0650 hc         1 CJ5       0.045950
     60 H352         9.3220    -5.1640     1.3400 hc         1 CJ5       0.045950
     61 H362         9.4670    -2.7490     1.4500 hc         1 CJ5       0.047700
     62 H361         7.8420    -2.9620     2.1050 hc         1 CJ5       0.047700
     63 H371         5.9530    -0.4040    -0.3320 ha         1 CJ5       0.164000
@<TRIPOS>BOND
     1     1     2 2   
     2     2     3 1   
     3     2    14 1   
     4     3     4 1   
     5     3    39 1   
     6     4     5 ar  
     7     4    13 ar  
     8     5     6 ar  
     9     5    40 1   
    10     6     7 ar  
    11     6    41 1   
    12     7     8 ar  
    13     7    42 1   
    14     8     9 1   
    15     8    13 ar  
    16     9    10 1   
    17     9    11 1   
    18     9    12 1   
    19    13    43 1   
    20    14    15 1   
    21    14    44 1   
    22    15    16 ar  
    23    15    18 ar  
    24    16    17 ar  
    25    16    45 1   
    26    17    20 ar  
    27    17    46 1   
    28    18    19 ar  
    29    18    47 1   
    30    19    20 ar  
    31    19    48 1   
    32    20    21 1   
    33    21    22 1   
    34    21    49 1   
    35    22    23 ar  
    36    22    38 ar  
    37    23    24 ar  
    38    24    25 ar  
    39    24    50 1   
    40    25    26 ar  
    41    25    51 1   
    42    26    27 1   
    43    26    38 ar  
    44    27    28 1   
    45    27    52 1   
    46    28    29 2   
    47    28    37 1   
    48    29    30 1   
    49    30    31 1   
    50    30    53 1   
    51    31    32 1   
    52    31    37 2   
    53    32    33 1   
    54    32    36 1   
    55    32    54 1   
    56    33    34 1   
    57    33    55 1   
    58    33    56 1   
    59    34    35 1   
    60    34    57 1   
    61    34    58 1   
    62    35    36 1   
    63    35    59 1   
    64    35    60 1   
    65    36    61 1   
    66    36    62 1   
    67    37    63 1   
@<TRIPOS>SUBSTRUCTURE
     1 CJ5         1 TEMP              0 ****  ****    0 ROOT
