@<TRIPOS>MOLECULE
CJ5
   63    67     1     0     0
SMALL
abcg2


@<TRIPOS>ATOM
      1 O01         -3.7580    -0.5130     0.8200 o          1 CJ5      -0.601100
      2 C02         -4.1490     0.3550     0.0640 c          1 CJ5       0.664100
      3 N03         -5.4760     0.6050    -0.1890 ns         1 CJ5      -0.168000
      4 C04         -6.5640    -0.0860     0.3400 ca         1 CJ5      -0.009000
      5 C05         -6.5510    -0.7110     1.5890 ca         1 CJ5      -0.096000
      6 C06         -7.6890    -1.3530     2.0480 ca         1 CJ5      -0.093000
      7 C07         -8.8580    -1.3810     1.3020 ca         1 CJ5      -0.086000
      8 C08         -8.8730    -0.7430     0.0700 ca         1 CJ5      -0.168300
      9 C09        -10.0970    -0.7460    -0.7920 c3         1 CJ5       0.355300
     10 F10        -11.1500    -1.3040    -0.1900 f          1 CJ5      -0.114000
     11 F11        -10.4600     0.4950    -1.1480 f          1 CJ5      -0.114000
     12 F12         -9.8960    -1.4230    -1.9330 f          1 CJ5      -0.114000
     13 C13         -7.7370    -0.1060    -0.4120 ca         1 CJ5      -0.125000
     14 N14         -3.3190     1.1850    -0.6350 ns         1 CJ5      -0.162000
     15 C15         -1.9190     1.1880    -0.5360 ca         1 CJ5      -0.057000
     16 C16         -1.1640     0.0180    -0.4810 ca         1 CJ5      -0.101500
     17 C17          0.2150     0.0840    -0.4130 ca         1 CJ5      -0.135000
     18 C18         -1.2480     2.4040    -0.5450 ca         1 CJ5      -0.101500
     19 C19          0.1370     2.4770    -0.4960 ca         1 CJ5      -0.135000
     20 C20          0.8940     1.3070    -0.4180 ca         1 CJ5       0.310000
     21 N21          2.2820     1.2490    -0.3480 nu         1 CJ5      -0.928900
     22 C22          3.2300     2.2270    -0.3260 ca         1 CJ5       0.421900
     23 N23          2.8710     3.5010    -0.3820 nb         1 CJ5      -0.267000
     24 C24          3.8770     4.3800    -0.3530 ca         1 CJ5       0.170900
     25 C25          5.1960     4.0270    -0.2720 ca         1 CJ5      -0.332000
     26 C26          5.4610     2.6420    -0.2170 ca         1 CJ5       0.433900
     27 N27          6.7420     2.2170    -0.1360 nu         1 CJ5      -0.886800
     28 C28          7.2260     0.9200    -0.0730 cc         1 CJ5       0.502900
     29 N29          8.5360     0.7680    -0.0120 nd         1 CJ5      -0.582800
     30 N30          8.7190    -0.5530     0.0420 na         1 CJ5       0.000800
     31 C31          7.5740    -1.2540     0.0160 cd         1 CJ5      -0.118300
     32 C32          7.5270    -2.7420     0.0680 c5         1 CJ5      -0.013400
     33 C33          8.3130    -3.4530    -1.0720 c5         1 CJ5      -0.076400
     34 C34          9.1700    -4.5310    -0.3880 c5         1 CJ5      -0.082400
     35 C35          8.5080    -4.7480     0.9710 c5         1 CJ5      -0.082400
     36 C36          8.0950    -3.3370     1.3720 c5         1 CJ5      -0.076400
     37 C37          6.5580    -0.3230    -0.0600 cc         1 CJ5      -0.217000
     38 N38          4.4790     1.7560    -0.2440 nb         1 CJ5      -0.315000
     39 H031        -5.6910     1.2190    -0.9600 hn         1 CJ5       0.150000
     40 H051        -5.6680    -0.6950     2.2080 ha         1 CJ5       0.149000
     41 H061        -7.6650    -1.8340     3.0170 ha         1 CJ5       0.123000
     42 H071        -9.7290    -1.8880     1.6890 ha         1 CJ5       0.133000
     43 H131        -7.7500     0.3830    -1.3790 ha         1 CJ5       0.123000
     44 H141        -3.7260     1.9960    -1.0780 hn         1 CJ5       0.148000
     45 H161        -1.6380    -0.9520    -0.5020 ha         1 CJ5       0.123000
     46 H171         0.7790    -0.8400    -0.3670 ha         1 CJ5       0.134500
     47 H181        -1.8140     3.3270    -0.5930 ha         1 CJ5       0.123000
     48 H191         0.6200     3.4390    -0.5090 ha         1 CJ5       0.134500
     49 H211         2.6710     0.3200    -0.2980 hn         1 CJ5       0.508000
     50 H241         3.5970     5.4270    -0.3980 h4         1 CJ5       0.020100
     51 H251         5.9860     4.7650    -0.2510 ha         1 CJ5       0.134000
     52 H271         7.4530     2.9320    -0.1210 hn         1 CJ5       0.514000
     53 H301         9.6580    -0.9130     0.0880 hn         1 CJ5       0.373000
     54 H321         6.4750    -3.0260    -0.0030 hc         1 CJ5       0.069700
     55 H332         7.6120    -3.8990    -1.7780 hc         1 CJ5       0.047700
     56 H331         8.9260    -2.7560    -1.6440 hc         1 CJ5       0.047700
     57 H341         9.2450    -5.4440    -0.9810 hc         1 CJ5       0.045950
     58 H342        10.1880    -4.1620    -0.2390 hc         1 CJ5       0.045950
     59 H351         7.6240    -5.3830     0.8680 hc         1 CJ5       0.045950
     60 H352         9.1680    -5.2230     1.6980 hc         1 CJ5       0.045950
     61 H362         8.9760    -2.7770     1.6980 hc         1 CJ5       0.047700
     62 H361         7.3700    -3.3030     2.1860 hc         1 CJ5       0.047700
     63 H371         5.5020    -0.5130    -0.0980 ha         1 CJ5       0.164000
@<TRIPOS>BOND
     1     1     2 2   
     2     2     3 1   
     3     2    14 1   
     4     3     4 1   
     5     3    39 1   
     6     4     5 ar  
     7     4    13 ar  
     8     5     6 ar  
     9     5    40 1   
    10     6     7 ar  
    11     6    41 1   
    12     7     8 ar  
    13     7    42 1   
    14     8     9 1   
    15     8    13 ar  
    16     9    10 1   
    17     9    11 1   
    18     9    12 1   
    19    13    43 1   
    20    14    15 1   
    21    14    44 1   
    22    15    16 ar  
    23    15    18 ar  
    24    16    17 ar  
    25    16    45 1   
    26    17    20 ar  
    27    17    46 1   
    28    18    19 ar  
    29    18    47 1   
    30    19    20 ar  
    31    19    48 1   
    32    20    21 1   
    33    21    22 1   
    34    21    49 1   
    35    22    23 ar  
    36    22    38 ar  
    37    23    24 ar  
    38    24    25 ar  
    39    24    50 1   
    40    25    26 ar  
    41    25    51 1   
    42    26    27 1   
    43    26    38 ar  
    44    27    28 1   
    45    27    52 1   
    46    28    29 2   
    47    28    37 1   
    48    29    30 1   
    49    30    31 1   
    50    30    53 1   
    51    31    32 1   
    52    31    37 2   
    53    32    33 1   
    54    32    36 1   
    55    32    54 1   
    56    33    34 1   
    57    33    55 1   
    58    33    56 1   
    59    34    35 1   
    60    34    57 1   
    61    34    58 1   
    62    35    36 1   
    63    35    59 1   
    64    35    60 1   
    65    36    61 1   
    66    36    62 1   
    67    37    63 1   
@<TRIPOS>SUBSTRUCTURE
     1 CJ5         1 TEMP              0 ****  ****    0 ROOT
