@<TRIPOS>MOLECULE
CJ6
   38    40     1     0     0
SMALL
No Charge or Current Charge


@<TRIPOS>ATOM
      1 C10         27.3410     9.6690   -14.2990 ca         1 CJ6       0.430900
      2 C13         27.0030     8.7190   -16.3150 ca         1 CJ6       0.432900
      3 C15         26.3870     7.6870   -18.5330 cx         1 CJ6       0.164500
      4 C16         26.7860     6.2340   -18.5990 cx         1 CJ6      -0.133400
      5 C17         25.4260     6.6670   -19.0880 cx         1 CJ6      -0.133400
      6 C18         28.3800     8.7090   -16.5400 ca         1 CJ6      -0.405000
      7 N02         33.5750     9.4820   -16.0030 n3         1 CJ6      -0.713600
      8 C03         32.8960    10.0750   -14.8140 c6         1 CJ6       0.149800
      9 C04         31.3940    10.4200   -15.0770 c6         1 CJ6       0.221800
     10 N05         30.6100     9.2650   -15.6400 nh         1 CJ6      -0.781300
     11 C06         31.3200     8.5610   -16.7600 c6         1 CJ6       0.221800
     12 C07         32.8260     8.2710   -16.4520 c6         1 CJ6       0.149800
     13 C08         29.2010     9.2280   -15.5290 ca         1 CJ6       0.446900
     14 N09         28.6700     9.7150   -14.3940 nb         1 CJ6      -0.353000
     15 N11         26.8140    10.1550   -13.1560 nv         1 CJ6      -1.053900
     16 N12         26.4680     9.1980   -15.1890 nb         1 CJ6      -0.351000
     17 N14         26.0960     8.2350   -17.2370 nu         1 CJ6      -0.911100
     18 H1          26.8610     8.3770   -19.2350 h1         1 CJ6       0.076700
     19 H2          26.8390     5.6770   -17.6680 hc         1 CJ6       0.078700
     20 H3          27.5270     5.9520   -19.3420 hc         1 CJ6       0.078700
     21 H4          25.2510     6.6740   -20.1610 hc         1 CJ6       0.078700
     22 H5          24.5620     6.3910   -18.4890 hc         1 CJ6       0.078700
     23 H6          28.7850     8.3240   -17.4660 ha         1 CJ6       0.130000
     24 H7          35.5360    10.1290   -15.4780 h1         1 CJ6       0.031367
     25 H8          35.1400     8.4730   -14.9590 h1         1 CJ6       0.031367
     26 H9          35.4850     8.8140   -16.6720 h1         1 CJ6       0.031367
     27 H11         32.9460     9.3760   -13.9660 h1         1 CJ6       0.039450
     28 H12         33.4120    10.9930   -14.4990 h1         1 CJ6       0.039450
     29 H13         31.3490    11.2670   -15.7780 h1         1 CJ6       0.056450
     30 H14         30.9660    10.7690   -14.1270 h1         1 CJ6       0.056450
     31 H15         31.2600     9.1670   -17.6760 h1         1 CJ6       0.056450
     32 H16         30.8390     7.5950   -16.9730 h1         1 CJ6       0.056450
     33 H17         32.8750     7.4920   -15.6760 h1         1 CJ6       0.039450
     34 H18         33.2900     7.8490   -17.3550 h1         1 CJ6       0.039450
     35 H19         25.8460     9.9290   -12.9440 hn         1 CJ6       0.481000
     36 H20         27.4350    10.3030   -12.3660 hn         1 CJ6       0.481000
     37 H21         25.1270     8.3230   -16.9280 hn         1 CJ6       0.502000
     38 C01         35.0090     9.2090   -15.7640 c3         1 CJ6       0.152100
@<TRIPOS>BOND
     1     1    14 ar  
     2     1    15 1   
     3     1    16 ar  
     4     2     6 ar  
     5     2    16 ar  
     6     2    17 1   
     7     3     4 1   
     8     3     5 1   
     9     3    17 1   
    10     3    18 1   
    11     4     5 1   
    12     4    19 1   
    13     4    20 1   
    14     5    21 1   
    15     5    22 1   
    16     6    13 ar  
    17     6    23 1   
    18     7     8 1   
    19     7    12 1   
    20     7    38 1   
    21     8     9 1   
    22     8    27 1   
    23     8    28 1   
    24     9    10 1   
    25     9    29 1   
    26     9    30 1   
    27    10    11 1   
    28    10    13 1   
    29    11    12 1   
    30    11    31 1   
    31    11    32 1   
    32    12    33 1   
    33    12    34 1   
    34    13    14 ar  
    35    15    35 1   
    36    15    36 1   
    37    17    37 1   
    38    24    38 1   
    39    25    38 1   
    40    26    38 1   
@<TRIPOS>SUBSTRUCTURE
     1 CJ6         1 TEMP              0 ****  ****    0 ROOT
