@<TRIPOS>MOLECULE
CJ6
   38    40     1     0     0
SMALL
abcg2


@<TRIPOS>ATOM
      1 C10         27.4090     9.7940   -14.3380 ca         1 CJ6       0.430900
      2 C13         27.0300     8.6750   -16.2640 ca         1 CJ6       0.432900
      3 C15         26.4290     7.6180   -18.3870 cx         1 CJ6       0.164500
      4 C16         27.1860     6.3340   -18.5570 cx         1 CJ6      -0.133400
      5 C17         25.7260     6.3940   -18.8760 cx         1 CJ6      -0.133400
      6 C18         28.3870     8.7400   -16.5830 ca         1 CJ6      -0.405000
      7 N02         33.4100     9.4130   -15.9490 n3         1 CJ6      -0.713600
      8 C03         32.7340     9.8140   -14.7330 c6         1 CJ6       0.149800
      9 C04         31.3640    10.3860   -15.0400 c6         1 CJ6       0.221800
     10 N05         30.5700     9.4430   -15.8060 nh         1 CJ6      -0.781300
     11 C06         31.2410     8.9650   -16.9970 c6         1 CJ6       0.221800
     12 C07         32.6180     8.4260   -16.6510 c6         1 CJ6       0.149800
     13 C08         29.2210     9.3640   -15.6460 ca         1 CJ6       0.446900
     14 N09         28.7200     9.9020   -14.5280 nb         1 CJ6      -0.353000
     15 N11         26.9090    10.3860   -13.2220 nv         1 CJ6      -1.053900
     16 N12         26.5300     9.2000   -15.1380 nb         1 CJ6      -0.351000
     17 N14         26.1290     8.0690   -17.0740 nu         1 CJ6      -0.911100
     18 H1          26.6240     8.3950   -19.1240 h1         1 CJ6       0.076700
     19 H2          27.4840     5.8130   -17.6550 hc         1 CJ6       0.078700
     20 H3          27.8950     6.2710   -19.3710 hc         1 CJ6       0.078700
     21 H4          25.4200     6.3740   -19.9140 hc         1 CJ6       0.078700
     22 H5          25.0390     5.9070   -18.1960 hc         1 CJ6       0.078700
     23 H6          28.7460     8.3310   -17.5120 ha         1 CJ6       0.130000
     24 H7          35.3370     9.7130   -15.2020 h1         1 CJ6       0.031367
     25 H8          34.7640     8.0440   -15.0320 h1         1 CJ6       0.031367
     26 H9          35.2420     8.6670   -16.6190 h1         1 CJ6       0.031367
     27 H11         32.6260     8.9710   -14.0280 h1         1 CJ6       0.039450
     28 H12         33.3260    10.5820   -14.2290 h1         1 CJ6       0.039450
     29 H13         31.4770    11.3220   -15.6040 h1         1 CJ6       0.056450
     30 H14         30.8490    10.6230   -14.1140 h1         1 CJ6       0.056450
     31 H15         31.3320     9.7680   -17.7390 h1         1 CJ6       0.056450
     32 H16         30.6760     8.1560   -17.4530 h1         1 CJ6       0.056450
     33 H17         32.5030     7.5000   -16.0590 h1         1 CJ6       0.039450
     34 H18         33.1240     8.1510   -17.5790 h1         1 CJ6       0.039450
     35 H19         25.9890    10.1080   -12.9250 hn         1 CJ6       0.481000
     36 H20         27.5580    10.6030   -12.4850 hn         1 CJ6       0.481000
     37 H21         25.1610     8.2170   -16.8340 hn         1 CJ6       0.502000
     38 C01         34.7460     8.9320   -15.6840 c3         1 CJ6       0.152100
@<TRIPOS>BOND
     1     1    14 ar  
     2     1    15 1   
     3     1    16 ar  
     4     2     6 ar  
     5     2    16 ar  
     6     2    17 1   
     7     3     4 1   
     8     3     5 1   
     9     3    17 1   
    10     3    18 1   
    11     4     5 1   
    12     4    19 1   
    13     4    20 1   
    14     5    21 1   
    15     5    22 1   
    16     6    13 ar  
    17     6    23 1   
    18     7     8 1   
    19     7    12 1   
    20     7    38 1   
    21     8     9 1   
    22     8    27 1   
    23     8    28 1   
    24     9    10 1   
    25     9    29 1   
    26     9    30 1   
    27    10    11 1   
    28    10    13 1   
    29    11    12 1   
    30    11    31 1   
    31    11    32 1   
    32    12    33 1   
    33    12    34 1   
    34    13    14 ar  
    35    15    35 1   
    36    15    36 1   
    37    17    37 1   
    38    24    38 1   
    39    25    38 1   
    40    26    38 1   
@<TRIPOS>SUBSTRUCTURE
     1 CJ6         1 TEMP              0 ****  ****    0 ROOT
