@<TRIPOS>MOLECULE
CJ7
   44    47     1     0     0
SMALL
No Charge or Current Charge


@<TRIPOS>ATOM
      1 C5          -4.4210     1.8140     0.0240 ca         1 CJ7      -0.074000
      2 C4          -5.8330     1.8530     0.0080 ca         1 CJ7       0.143000
      3 N4          -1.3040     0.9480     0.0370 nb         1 CJ7      -0.221000
      4 C3          -6.5970     0.6600    -0.0340 ca         1 CJ7      -0.115000
      5 C2          -5.9590    -0.6010    -0.0600 ca         1 CJ7      -0.107000
      6 C1          -4.5590    -0.6100    -0.0440 ca         1 CJ7      -0.014200
      7 N2           5.2670     0.1730     0.2520 n3         1 CJ7      -0.721600
      8 N3          -0.0960     0.3340     0.0350 nb         1 CJ7      -0.139000
      9 N1          -1.0950    -1.8660    -0.0370 nb         1 CJ7      -0.170000
     10 F           -6.4650     3.0470     0.0330 f          1 CJ7      -0.174000
     11 C6          -3.7940     0.5520    -0.0030 cp         1 CJ7      -0.152500
     12 C7          -2.3900     0.1550     0.0030 cp         1 CJ7       0.237500
     13 C8          -2.2890    -1.2410    -0.0340 ca         1 CJ7       0.172500
     14 N           -3.6320    -1.6650    -0.0620 na         1 CJ7      -0.193300
     15 C9          -0.0250    -1.0290    -0.0010 ca         1 CJ7       0.200300
     16 S            1.5900    -1.8020    -0.0040 ss         1 CJ7      -0.309300
     17 C10          2.7790    -0.3810     0.0670 c3         1 CJ7       0.044600
     18 C11          4.2380    -0.8870     0.0770 c3         1 CJ7       0.178800
     19 C12          6.6190    -0.4090     0.4870 c6         1 CJ7       0.169300
     20 C13          7.6700     0.6850     0.8010 c6         1 CJ7      -0.075400
     21 C14          7.7250     1.7390    -0.3270 c6         1 CJ7      -0.075400
     22 C15          6.3110     2.3040    -0.5920 c6         1 CJ7      -0.075400
     23 C16          5.2960     1.1670    -0.8630 c6         1 CJ7       0.169300
     24 H1          -3.8400     2.7320     0.0560 ha         1 CJ7       0.153000
     25 H2          -7.6820     0.7190    -0.0450 ha         1 CJ7       0.136000
     26 H3          -6.5340    -1.5240    -0.0930 ha         1 CJ7       0.128000
     27 H5          -4.6160    -3.2720    -1.0130 h1         1 CJ7       0.059367
     28 H6          -3.1420    -3.7280    -0.1120 h1         1 CJ7       0.059367
     29 H7          -4.6380    -3.3210     0.7750 h1         1 CJ7       0.059367
     30 H8           2.6100     0.2630    -0.8040 h1         1 CJ7       0.086200
     31 H9           2.5920     0.2010     0.9770 h1         1 CJ7       0.086200
     32 H10          4.4230    -1.4380    -0.8550 h1         1 CJ7       0.040200
     33 H11          4.3250    -1.6110     0.8980 h1         1 CJ7       0.040200
     34 H12          6.5890    -1.1150     1.3300 h1         1 CJ7       0.030200
     35 H13          6.9460    -0.9760    -0.3970 h1         1 CJ7       0.030200
     36 H14          7.4180     1.1710     1.7530 hc         1 CJ7       0.047450
     37 H15          8.6580     0.2240     0.9340 hc         1 CJ7       0.047450
     38 H16          8.4130     2.5510    -0.0550 hc         1 CJ7       0.038700
     39 H17          8.1200     1.2820    -1.2450 hc         1 CJ7       0.038700
     40 H18          5.9780     2.8920     0.2750 hc         1 CJ7       0.047450
     41 H19          6.3350     2.9930    -1.4470 hc         1 CJ7       0.047450
     42 H20          5.5590     0.6680    -1.8080 h1         1 CJ7       0.030200
     43 H21          4.3070     1.6240    -1.0040 h1         1 CJ7       0.030200
     44 C           -4.0290    -3.0830    -0.1050 c3         1 CJ7       0.066900
@<TRIPOS>BOND
     1     1     2 ar  
     2     1    11 ar  
     3     1    24 1   
     4     2     4 ar  
     5     2    10 1   
     6     3     8 ar  
     7     3    12 ar  
     8     4     5 ar  
     9     4    25 1   
    10     5     6 ar  
    11     5    26 1   
    12     6    11 ar  
    13     6    14 1   
    14     7    18 1   
    15     7    19 1   
    16     7    23 1   
    17     8    15 ar  
    18     9    13 ar  
    19     9    15 ar  
    20    11    12 1   
    21    12    13 ar  
    22    13    14 1   
    23    14    44 1   
    24    15    16 1   
    25    16    17 1   
    26    17    18 1   
    27    17    30 1   
    28    17    31 1   
    29    18    32 1   
    30    18    33 1   
    31    19    20 1   
    32    19    34 1   
    33    19    35 1   
    34    20    21 1   
    35    20    36 1   
    36    20    37 1   
    37    21    22 1   
    38    21    38 1   
    39    21    39 1   
    40    22    23 1   
    41    22    40 1   
    42    22    41 1   
    43    23    42 1   
    44    23    43 1   
    45    27    44 1   
    46    28    44 1   
    47    29    44 1   
@<TRIPOS>SUBSTRUCTURE
     1 CJ7         1 TEMP              0 ****  ****    0 ROOT
