@<TRIPOS>MOLECULE
CJ7
   44    47     1     0     0
SMALL
bcc


@<TRIPOS>ATOM
      1 C5          -4.3920     1.8400     0.3460 ca         1 CJ7      -0.092000
      2 C4          -5.7650     1.7550     0.2740 ca         1 CJ7       0.107900
      3 N4          -1.2070     1.0530     0.3270 nb         1 CJ7      -0.221000
      4 C3          -6.4390     0.5600     0.0440 ca         1 CJ7      -0.133000
      5 C2          -5.7320    -0.6200    -0.1220 ca         1 CJ7      -0.125000
      6 C1          -4.3490    -0.5580    -0.0500 ca         1 CJ7      -0.014200
      7 N2           5.1230     0.1730     0.1810 n3         1 CJ7      -0.721600
      8 N3          -0.0380     0.4410     0.2620 nb         1 CJ7      -0.402000
      9 N1          -1.0420    -1.6940    -0.1210 nb         1 CJ7      -0.696000
     10 F           -6.4920     2.8730     0.4320 f          1 CJ7      -0.138900
     11 C6          -3.6820     0.6580     0.1780 cp         1 CJ7      -0.152500
     12 C7          -2.2830     0.3300     0.1750 cp         1 CJ7       0.237500
     13 C8          -2.1920    -1.0740    -0.0530 ca         1 CJ7       0.435500
     14 N           -3.4270    -1.5920    -0.1800 na         1 CJ7      -0.164000
     15 C9          -0.0040    -0.8700     0.0450 ca         1 CJ7       0.726300
     16 S            1.5480    -1.6670    -0.0440 ss         1 CJ7      -0.261400
     17 C10          2.7220    -0.2970     0.1580 c3         1 CJ7      -0.003300
     18 C11          4.1320    -0.8790     0.1000 c3         1 CJ7       0.178800
     19 C12          6.4000    -0.3160     0.6800 c6         1 CJ7       0.169300
     20 C13          7.3750     0.8320     0.8990 c6         1 CJ7      -0.075400
     21 C14          7.5700     1.6330    -0.3820 c6         1 CJ7      -0.075400
     22 C15          6.2190     2.0660    -0.9350 c6         1 CJ7      -0.075400
     23 C16          5.2940     0.8680    -1.0850 c6         1 CJ7       0.169300
     24 H1          -3.8940     2.7840     0.5270 ha         1 CJ7       0.171000
     25 H2          -7.5200     0.5560    -0.0040 ha         1 CJ7       0.154000
     26 H3          -6.2580    -1.5480    -0.3040 ha         1 CJ7       0.146000
     27 H5          -4.1670    -3.0910    -1.4430 h1         1 CJ7       0.059367
     28 H6          -2.8530    -3.5720    -0.3590 h1         1 CJ7       0.059367
     29 H7          -4.4800    -3.3330     0.2880 h1         1 CJ7       0.059367
     30 H8           2.5470     0.4290    -0.6340 h1         1 CJ7       0.086200
     31 H9           2.5540     0.1900     1.1170 h1         1 CJ7       0.086200
     32 H10          4.2550    -1.4980    -0.8050 h1         1 CJ7       0.040200
     33 H11          4.2650    -1.5490     0.9530 h1         1 CJ7       0.040200
     34 H12          6.2290    -0.8390     1.6230 h1         1 CJ7       0.030200
     35 H13          6.8500    -1.0470    -0.0150 h1         1 CJ7       0.030200
     36 H14          6.9830     1.4840     1.6850 hc         1 CJ7       0.047450
     37 H15          8.3260     0.4340     1.2580 hc         1 CJ7       0.047450
     38 H16          8.2130     2.4980    -0.2020 hc         1 CJ7       0.038700
     39 H17          8.0800     1.0100    -1.1250 hc         1 CJ7       0.038700
     40 H18          5.7570     2.7940    -0.2600 hc         1 CJ7       0.047450
     41 H19          6.3330     2.5560    -1.9040 hc         1 CJ7       0.047450
     42 H20          5.7060     0.1880    -1.8530 h1         1 CJ7       0.030200
     43 H21          4.3210     1.2010    -1.4500 h1         1 CJ7       0.030200
     44 C           -3.7560    -2.9730    -0.4410 c3         1 CJ7       0.037600
@<TRIPOS>BOND
     1     1     2 ar  
     2     1    11 ar  
     3     1    24 1   
     4     2     4 ar  
     5     2    10 1   
     6     3     8 ar  
     7     3    12 ar  
     8     4     5 ar  
     9     4    25 1   
    10     5     6 ar  
    11     5    26 1   
    12     6    11 ar  
    13     6    14 1   
    14     7    18 1   
    15     7    19 1   
    16     7    23 1   
    17     8    15 ar  
    18     9    13 ar  
    19     9    15 ar  
    20    11    12 1   
    21    12    13 ar  
    22    13    14 1   
    23    14    44 1   
    24    15    16 1   
    25    16    17 1   
    26    17    18 1   
    27    17    30 1   
    28    17    31 1   
    29    18    32 1   
    30    18    33 1   
    31    19    20 1   
    32    19    34 1   
    33    19    35 1   
    34    20    21 1   
    35    20    36 1   
    36    20    37 1   
    37    21    22 1   
    38    21    38 1   
    39    21    39 1   
    40    22    23 1   
    41    22    40 1   
    42    22    41 1   
    43    23    42 1   
    44    23    43 1   
    45    27    44 1   
    46    28    44 1   
    47    29    44 1   
@<TRIPOS>SUBSTRUCTURE
     1 CJ7         1 TEMP              0 ****  ****    0 ROOT
