@<TRIPOS>MOLECULE
CJ8
   36    35     1     0     0
SMALL
No Charge or Current Charge


@<TRIPOS>ATOM
      1 CAC          5.3450     2.5620    -0.2690 c3         1 CJ8      -0.088100
      2 CAA          3.8990     2.1020    -0.0040 c3         1 CJ8      -0.094900
      3 CAB          3.7630     0.5700     0.0870 c3         1 CJ8       0.102000
      4 NAD          2.3800     0.1650     0.3370 ns         1 CJ8      -0.494900
      5 CAE          1.9440    -1.1440     0.3430 c          1 CJ8       0.576100
      6 OAN          2.7190    -2.0800     0.1760 o          1 CJ8      -0.599100
      7 CAF          0.4300    -1.3480     0.6610 c3         1 CJ8       0.070300
      8 OAM          0.1950    -2.5530     1.4380 oh         1 CJ8      -0.643000
      9 CAG         -0.4280    -1.3550    -0.6390 c3         1 CJ8       0.070300
     10 OAP         -0.1890    -2.5650    -1.4060 oh         1 CJ8      -0.643000
     11 CAH         -1.9420    -1.1520    -0.3230 c          1 CJ8       0.576100
     12 OAO         -2.7140    -2.0880    -0.1480 o          1 CJ8      -0.599100
     13 NAI         -2.3810     0.1560    -0.3280 ns         1 CJ8      -0.494900
     14 CAJ         -3.7660     0.5590    -0.0810 c3         1 CJ8       0.102000
     15 CAK         -3.9060     2.0910    -0.0060 c3         1 CJ8      -0.094900
     16 CAL         -5.3530     2.5500     0.2560 c3         1 CJ8      -0.088100
     17 H1           6.0120     2.2310     0.5360 hc         1 CJ8       0.038867
     18 H2           5.7160     2.1520    -1.2170 hc         1 CJ8       0.038867
     19 H3           5.3940     3.6560    -0.3270 hc         1 CJ8       0.038867
     20 H4           3.5460     2.5540     0.9310 hc         1 CJ8       0.041200
     21 H5           3.2520     2.4760    -0.8080 hc         1 CJ8       0.041200
     22 H6           4.1030     0.1150    -0.8530 h1         1 CJ8       0.057200
     23 H7           4.3960     0.1910     0.9010 h1         1 CJ8       0.057200
     24 H8           1.6910     0.8870     0.5180 hn         1 CJ8       0.310000
     25 H9           0.1230    -0.4760     1.2540 h1         1 CJ8       0.066200
     26 H10          0.8400    -3.2240     1.1120 ho         1 CJ8       0.482000
     27 H11         -0.1220    -0.4860    -1.2380 h1         1 CJ8       0.066200
     28 H12         -0.8320    -3.2350    -1.0750 ho         1 CJ8       0.482000
     29 H13         -1.6940     0.8780    -0.5140 hn         1 CJ8       0.310000
     30 H14         -4.3980     0.1700    -0.8900 h1         1 CJ8       0.057200
     31 H15         -4.1030     0.1130     0.8650 h1         1 CJ8       0.057200
     32 H16         -3.2600     2.4760     0.7930 hc         1 CJ8       0.041200
     33 H17         -3.5550     2.5350    -0.9460 hc         1 CJ8       0.041200
     34 H18         -5.4060     3.6440     0.3010 hc         1 CJ8       0.038867
     35 H19         -6.0200     2.2080    -0.5460 hc         1 CJ8       0.038867
     36 H20         -5.7220     2.1490     1.2080 hc         1 CJ8       0.038867
@<TRIPOS>BOND
     1     1     2 1   
     2     1    17 1   
     3     1    18 1   
     4     1    19 1   
     5     2     3 1   
     6     2    20 1   
     7     2    21 1   
     8     3     4 1   
     9     3    22 1   
    10     3    23 1   
    11     4     5 1   
    12     4    24 1   
    13     5     6 2   
    14     5     7 1   
    15     7     8 1   
    16     7     9 1   
    17     7    25 1   
    18     8    26 1   
    19     9    10 1   
    20     9    11 1   
    21     9    27 1   
    22    10    28 1   
    23    11    12 2   
    24    11    13 1   
    25    13    14 1   
    26    13    29 1   
    27    14    15 1   
    28    14    30 1   
    29    14    31 1   
    30    15    16 1   
    31    15    32 1   
    32    15    33 1   
    33    16    34 1   
    34    16    35 1   
    35    16    36 1   
@<TRIPOS>SUBSTRUCTURE
     1 CJ8         1 TEMP              0 ****  ****    0 ROOT
