@<TRIPOS>MOLECULE
CJ8
   36    35     1     0     0
SMALL
bcc


@<TRIPOS>ATOM
      1 CAC          5.8540     1.8670    -0.4620 c3         1 CJ8      -0.088100
      2 CAA          4.3440     1.8010    -0.2890 c3         1 CJ8      -0.094900
      3 CAB          3.8900     0.4100     0.1230 c3         1 CJ8       0.102000
      4 NAD          2.4460     0.3620     0.2570 ns         1 CJ8      -0.561900
      5 CAE          1.7910    -0.7160     0.6860 c          1 CJ8       0.643100
      6 OAN          2.3380    -1.7580     1.0240 o          1 CJ8      -0.599100
      7 CAF          0.2660    -0.6080     0.7190 c3         1 CJ8       0.047100
      8 OAM         -0.2670    -1.6510     1.4740 oh         1 CJ8      -0.580800
      9 CAG         -0.2710    -0.6350    -0.7280 c3         1 CJ8       0.047100
     10 OAP          0.2570    -1.7100    -1.4400 oh         1 CJ8      -0.580800
     11 CAH         -1.7970    -0.7390    -0.6870 c          1 CJ8       0.643100
     12 OAO         -2.3460    -1.7900    -0.9920 o          1 CJ8      -0.599100
     13 NAI         -2.4490     0.3510    -0.2870 ns         1 CJ8      -0.561900
     14 CAJ         -3.8920     0.3980    -0.1350 c3         1 CJ8       0.102000
     15 CAK         -4.3420     1.7830     0.2990 c3         1 CJ8      -0.094900
     16 CAL         -5.8490     1.8450     0.4920 c3         1 CJ8      -0.088100
     17 H1           6.3710     1.6030     0.4620 hc         1 CJ8       0.038867
     18 H2           6.1940     1.1810    -1.2400 hc         1 CJ8       0.038867
     19 H3           6.1720     2.8710    -0.7440 hc         1 CJ8       0.038867
     20 H4           4.0260     2.5250     0.4660 hc         1 CJ8       0.041200
     21 H5           3.8510     2.0830    -1.2240 hc         1 CJ8       0.041200
     22 H6           4.2170    -0.3230    -0.6200 h1         1 CJ8       0.057200
     23 H7           4.3570     0.1340     1.0710 h1         1 CJ8       0.057200
     24 H8           1.9240     1.1980     0.0450 hn         1 CJ8       0.310000
     25 H9          -0.0160     0.3450     1.1830 h1         1 CJ8       0.066200
     26 H10          0.3840    -2.3670     1.4730 ho         1 CJ8       0.443000
     27 H11          0.0130     0.2990    -1.2280 h1         1 CJ8       0.066200
     28 H12         -0.4050    -2.4160    -1.4220 ho         1 CJ8       0.443000
     29 H13         -1.9270     1.1930    -0.1020 hn         1 CJ8       0.310000
     30 H14         -4.3710     0.1320    -1.0810 h1         1 CJ8       0.057200
     31 H15         -4.2090    -0.3430     0.6030 h1         1 CJ8       0.057200
     32 H16         -3.8380     2.0540     1.2310 hc         1 CJ8       0.041200
     33 H17         -4.0350     2.5170    -0.4510 hc         1 CJ8       0.041200
     34 H18         -6.1650     2.8450     0.7900 hc         1 CJ8       0.038867
     35 H19         -6.3780     1.5920    -0.4290 hc         1 CJ8       0.038867
     36 H20         -6.1790     1.1490     1.2640 hc         1 CJ8       0.038867
@<TRIPOS>BOND
     1     1     2 1   
     2     1    17 1   
     3     1    18 1   
     4     1    19 1   
     5     2     3 1   
     6     2    20 1   
     7     2    21 1   
     8     3     4 1   
     9     3    22 1   
    10     3    23 1   
    11     4     5 1   
    12     4    24 1   
    13     5     6 2   
    14     5     7 1   
    15     7     8 1   
    16     7     9 1   
    17     7    25 1   
    18     8    26 1   
    19     9    10 1   
    20     9    11 1   
    21     9    27 1   
    22    10    28 1   
    23    11    12 2   
    24    11    13 1   
    25    13    14 1   
    26    13    29 1   
    27    14    15 1   
    28    14    30 1   
    29    14    31 1   
    30    15    16 1   
    31    15    32 1   
    32    15    33 1   
    33    16    34 1   
    34    16    35 1   
    35    16    36 1   
@<TRIPOS>SUBSTRUCTURE
     1 CJ8         1 TEMP              0 ****  ****    0 ROOT
