@<TRIPOS>MOLECULE
CJ9
   36    38     1     0     0
SMALL
abcg2


@<TRIPOS>ATOM
      1 N01         27.0630    10.5170   -13.6460 nv         1 CJ9      -1.030900
      2 C02         27.6880     9.5900   -14.4410 ca         1 CJ9       0.412900
      3 N03         28.9630     9.3530   -14.1730 nb         1 CJ9      -0.341000
      4 C04         29.5930     8.4740   -14.9610 ca         1 CJ9       0.435900
      5 C05         28.9300     7.8680   -16.0370 ca         1 CJ9      -0.397000
      6 C06         27.5910     8.2100   -16.2150 ca         1 CJ9       0.430900
      7 N07         26.8430     7.7100   -17.2300 nu         1 CJ9      -0.915100
      8 C08         27.2680     6.6840   -18.1100 cx         1 CJ9       0.168500
      9 C09         28.2630     7.0180   -19.1820 cx         1 CJ9      -0.133900
     10 C10         26.8320     6.7760   -19.5370 cx         1 CJ9      -0.133900
     11 N11         26.9530     9.0620   -15.4070 nb         1 CJ9      -0.343000
     12 N12         30.8850     8.1910   -14.6410 nh         1 CJ9      -0.767300
     13 C13         31.7290     7.3750   -15.4890 c6         1 CJ9       0.213800
     14 C14         32.5550     8.2430   -16.4330 c6         1 CJ9      -0.106400
     15 C15         33.3800     9.2430   -15.6260 c6         1 CJ9      -0.074400
     16 C16         32.5020    10.0290   -14.6550 c6         1 CJ9      -0.106400
     17 C17         31.6550     9.0900   -13.7980 c6         1 CJ9       0.213800
     18 H1          26.0590    10.4550   -13.6360 hn         1 CJ9       0.468000
     19 H2          27.4690    10.6460   -12.7350 hn         1 CJ9       0.468000
     20 H3          29.4120     7.1850   -16.7150 ha         1 CJ9       0.132000
     21 H4          25.8620     7.9300   -17.1830 hn         1 CJ9       0.504000
     22 H5          27.3340     5.6840   -17.6860 h1         1 CJ9       0.076700
     23 H6          28.9970     6.2670   -19.4450 hc         1 CJ9       0.078700
     24 H7          28.6280     8.0360   -19.2170 hc         1 CJ9       0.078700
     25 H8          26.2340     7.6310   -19.8240 hc         1 CJ9       0.078700
     26 H9          26.5710     5.8570   -20.0450 hc         1 CJ9       0.078700
     27 H10         31.1390     6.6340   -16.0240 h1         1 CJ9       0.058700
     28 H11         32.4010     6.8060   -14.8370 h1         1 CJ9       0.058700
     29 H12         33.2040     7.6150   -17.0460 hc         1 CJ9       0.049700
     30 H13         31.8820     8.7710   -17.1160 hc         1 CJ9       0.049700
     31 H14         34.1450     8.7000   -15.0600 hc         1 CJ9       0.039200
     32 H15         33.9150     9.9230   -16.2920 hc         1 CJ9       0.039200
     33 H16         33.1170    10.6590   -14.0080 hc         1 CJ9       0.049700
     34 H17         31.8350    10.6970   -15.2070 hc         1 CJ9       0.049700
     35 H18         30.9790     9.6410   -13.1520 h1         1 CJ9       0.058700
     36 H19         32.3040     8.4820   -13.1580 h1         1 CJ9       0.058700
@<TRIPOS>BOND
     1     1     2 1   
     2     1    18 1   
     3     1    19 1   
     4     2     3 ar  
     5     2    11 ar  
     6     3     4 ar  
     7     4     5 ar  
     8     4    12 1   
     9     5     6 ar  
    10     5    20 1   
    11     6     7 1   
    12     6    11 ar  
    13     7     8 1   
    14     7    21 1   
    15     8     9 1   
    16     8    10 1   
    17     8    22 1   
    18     9    10 1   
    19     9    23 1   
    20     9    24 1   
    21    10    25 1   
    22    10    26 1   
    23    12    13 1   
    24    12    17 1   
    25    13    14 1   
    26    13    27 1   
    27    13    28 1   
    28    14    15 1   
    29    14    29 1   
    30    14    30 1   
    31    15    16 1   
    32    15    31 1   
    33    15    32 1   
    34    16    17 1   
    35    16    33 1   
    36    16    34 1   
    37    17    35 1   
    38    17    36 1   
@<TRIPOS>SUBSTRUCTURE
     1 CJ9         1 TEMP              0 ****  ****    0 ROOT
