@<TRIPOS>MOLECULE
CJ9
   36    38     1     0     0
SMALL
No Charge or Current Charge


@<TRIPOS>ATOM
      1 N01         26.8360     9.9060   -13.3280 nv         1 CJ9      -1.030900
      2 C02         27.5250     9.2910   -14.3130 ca         1 CJ9       0.412900
      3 N03         28.8550     9.3330   -14.2130 nb         1 CJ9      -0.341000
      4 C04         29.5410     8.7150   -15.1900 ca         1 CJ9       0.435900
      5 C05         28.8780     8.0810   -16.2470 ca         1 CJ9      -0.397000
      6 C06         27.4830     8.1070   -16.2350 ca         1 CJ9       0.430900
      7 N07         26.7210     7.5170   -17.2250 nu         1 CJ9      -0.915100
      8 C08         27.2000     6.7850   -18.3640 cx         1 CJ9       0.168500
      9 C09         27.6140     7.5790   -19.5770 cx         1 CJ9      -0.133900
     10 C10         26.3360     6.7790   -19.6000 cx         1 CJ9      -0.133900
     11 N11         26.7910     8.7110   -15.2650 nb         1 CJ9      -0.343000
     12 N12         30.9510     8.7410   -15.1250 nh         1 CJ9      -0.767300
     13 C13         31.7300     7.4860   -15.3420 c6         1 CJ9       0.213800
     14 C14         33.1270     7.7890   -15.9360 c6         1 CJ9      -0.106400
     15 C15         33.9050     8.7910   -15.0520 c6         1 CJ9      -0.074400
     16 C16         33.0640    10.0710   -14.8420 c6         1 CJ9      -0.106400
     17 C17         31.6610     9.7430   -14.2710 c6         1 CJ9       0.213800
     18 H1          25.8420     9.7140   -13.2440 hn         1 CJ9       0.468000
     19 H2          27.3320    10.1660   -12.4800 hn         1 CJ9       0.468000
     20 H3          29.4270     7.6060   -17.0500 ha         1 CJ9       0.132000
     21 H4          25.7180     7.6170   -17.0700 hn         1 CJ9       0.504000
     22 H5          27.7660     5.8790   -18.1320 h1         1 CJ9       0.076700
     23 H6          28.4570     7.2090   -20.1540 hc         1 CJ9       0.078700
     24 H7          27.5370     8.6620   -19.5280 hc         1 CJ9       0.078700
     25 H8          25.3970     7.3250   -19.5760 hc         1 CJ9       0.078700
     26 H9          26.3180     5.8690   -20.1940 hc         1 CJ9       0.078700
     27 H10         31.2050     6.7990   -16.0220 h1         1 CJ9       0.058700
     28 H11         31.8520     6.9540   -14.3870 h1         1 CJ9       0.058700
     29 H12         33.6970     6.8560   -16.0360 hc         1 CJ9       0.049700
     30 H13         33.0130     8.1980   -16.9490 hc         1 CJ9       0.049700
     31 H14         34.1350     8.3320   -14.0810 hc         1 CJ9       0.039200
     32 H15         34.8660     9.0420   -15.5200 hc         1 CJ9       0.039200
     33 H16         33.5880    10.7580   -14.1640 hc         1 CJ9       0.049700
     34 H17         32.9530    10.6010   -15.7980 hc         1 CJ9       0.049700
     35 H18         31.0920    10.6830   -14.2130 h1         1 CJ9       0.058700
     36 H19         31.7650     9.3590   -13.2450 h1         1 CJ9       0.058700
@<TRIPOS>BOND
     1     1     2 1   
     2     1    18 1   
     3     1    19 1   
     4     2     3 ar  
     5     2    11 ar  
     6     3     4 ar  
     7     4     5 ar  
     8     4    12 1   
     9     5     6 ar  
    10     5    20 1   
    11     6     7 1   
    12     6    11 ar  
    13     7     8 1   
    14     7    21 1   
    15     8     9 1   
    16     8    10 1   
    17     8    22 1   
    18     9    10 1   
    19     9    23 1   
    20     9    24 1   
    21    10    25 1   
    22    10    26 1   
    23    12    13 1   
    24    12    17 1   
    25    13    14 1   
    26    13    27 1   
    27    13    28 1   
    28    14    15 1   
    29    14    29 1   
    30    14    30 1   
    31    15    16 1   
    32    15    31 1   
    33    15    32 1   
    34    16    17 1   
    35    16    33 1   
    36    16    34 1   
    37    17    35 1   
    38    17    36 1   
@<TRIPOS>SUBSTRUCTURE
     1 CJ9         1 TEMP              0 ****  ****    0 ROOT
