@<TRIPOS>MOLECULE
CJA
   43    45     1     0     0
SMALL
No Charge or Current Charge


@<TRIPOS>ATOM
      1 C10         73.7210   -85.9860    -2.7940 ca         1 CJA       0.119900
      2 C15         75.0480   -90.9000    -0.9210 c          1 CJA       0.586100
      3 C17         75.1630   -92.4170    -0.5430 c3         1 CJA      -0.141000
      4 C20         76.6610   -92.7890    -0.3570 c3         1 CJA      -0.081767
      5 C22         72.2220   -87.3970    -1.5420 ca         1 CJA       0.221500
      6 C01         70.4940   -91.6890    -0.7020 c3         1 CJA      -0.024100
      7 C03         70.3820   -88.8930    -0.4860 cc         1 CJA      -0.198000
      8 C05         68.5140   -87.3880    -1.1230 cc         1 CJA      -0.243000
      9 C06         69.7500   -86.9260    -1.5090 cd         1 CJA      -0.064300
     10 C07         69.9740   -85.6190    -2.2400 c6         1 CJA      -0.012100
     11 C08         71.1980   -85.7210    -3.1840 c6         1 CJA      -0.014100
     12 C09         72.4030   -86.3720    -2.4950 ca         1 CJA      -0.187300
     13 C12         74.5100   -87.4970    -1.2540 ca         1 CJA       0.241300
     14 C14         75.3430   -89.8700     0.1950 c3         1 CJA      -0.090400
     15 C18         74.5660   -93.3060    -1.6750 c3         1 CJA      -0.081767
     16 C19         74.3930   -92.7140     0.7750 c3         1 CJA      -0.081767
     17 C23         70.8400   -87.7830    -1.1720 cd         1 CJA      -0.186500
     18 N11         74.7770   -86.5500    -2.1770 nb         1 CJA      -0.163000
     19 N21         73.2820   -87.9290    -0.8970 nb         1 CJA      -0.187000
     20 O16         74.7250   -90.5410    -2.0480 o          1 CJA      -0.492100
     21 S02         71.4510   -90.2380    -0.0900 ss         1 CJA      -0.024000
     22 S04         68.6340   -88.9470    -0.3200 ss         1 CJA       0.199000
     23 S13         75.9290   -88.2100    -0.4210 ss         1 CJA      -0.268300
     24 H1          73.9370   -85.2130    -3.5300 h4         1 CJA       0.023100
     25 H2          77.1140   -92.2450     0.4800 hc         1 CJA       0.039811
     26 H3          76.7740   -93.8610    -0.1520 hc         1 CJA       0.039811
     27 H4          77.2350   -92.5570    -1.2620 hc         1 CJA       0.039811
     28 H5          71.0870   -92.6010    -0.5660 h1         1 CJA       0.070033
     29 H6          69.5570   -91.7810    -0.1400 h1         1 CJA       0.070033
     30 H7          70.2710   -91.5570    -1.7670 h1         1 CJA       0.070033
     31 H8          67.5420   -86.9330    -1.2590 h4         1 CJA       0.153000
     32 H9          70.1450   -84.8160    -1.5100 hc         1 CJA       0.056700
     33 H10         69.0840   -85.3310    -2.8150 hc         1 CJA       0.056700
     34 H11         70.9260   -86.3200    -4.0650 hc         1 CJA       0.055700
     35 H12         71.4600   -84.7220    -3.5580 hc         1 CJA       0.055700
     36 H13         74.4350   -89.7490     0.7970 h1         1 CJA       0.101700
     37 H14         76.1200   -90.2820     0.8460 h1         1 CJA       0.101700
     38 H15         74.6290   -94.3690    -1.4140 hc         1 CJA       0.039811
     39 H16         73.5090   -93.0640    -1.8460 hc         1 CJA       0.039811
     40 H17         75.1060   -93.1610    -2.6190 hc         1 CJA       0.039811
     41 H18         74.8190   -92.1720     1.6280 hc         1 CJA       0.039811
     42 H19         73.3370   -92.4330     0.6860 hc         1 CJA       0.039811
     43 H20         74.4330   -93.7840     1.0170 hc         1 CJA       0.039811
@<TRIPOS>BOND
     1     1    12 ar  
     2     1    18 ar  
     3     1    24 1   
     4     2     3 1   
     5     2    14 1   
     6     2    20 2   
     7     3     4 1   
     8     3    15 1   
     9     3    16 1   
    10     4    25 1   
    11     4    26 1   
    12     4    27 1   
    13     5    12 ar  
    14     5    17 1   
    15     5    19 ar  
    16     6    21 1   
    17     6    28 1   
    18     6    29 1   
    19     6    30 1   
    20     7    17 2   
    21     7    21 1   
    22     7    22 1   
    23     8     9 2   
    24     8    22 1   
    25     8    31 1   
    26     9    10 1   
    27     9    17 1   
    28    10    11 1   
    29    10    32 1   
    30    10    33 1   
    31    11    12 1   
    32    11    34 1   
    33    11    35 1   
    34    13    18 ar  
    35    13    19 ar  
    36    13    23 1   
    37    14    23 1   
    38    14    36 1   
    39    14    37 1   
    40    15    38 1   
    41    15    39 1   
    42    15    40 1   
    43    16    41 1   
    44    16    42 1   
    45    16    43 1   
@<TRIPOS>SUBSTRUCTURE
     1 CJA         1 TEMP              0 ****  ****    0 ROOT
