@<TRIPOS>MOLECULE
CJA
   43    45     1     0     0
SMALL
abcg2


@<TRIPOS>ATOM
      1 C10         73.7440   -85.7600    -2.4860 ca         1 CJA       0.119900
      2 C15         75.1090   -90.9130    -1.0400 c          1 CJA       0.586100
      3 C17         75.0620   -92.3590    -0.5540 c3         1 CJA      -0.141000
      4 C20         76.5260   -92.8240    -0.4680 c3         1 CJA      -0.081767
      5 C22         72.2800   -87.4010    -1.6530 ca         1 CJA       0.221500
      6 C01         70.4890   -91.8340    -0.3630 c3         1 CJA      -0.024100
      7 C03         70.5790   -89.1740    -1.0370 cc         1 CJA      -0.198000
      8 C05         68.6310   -87.7080    -1.5210 cc         1 CJA      -0.243000
      9 C06         69.8090   -87.0740    -1.7300 cd         1 CJA      -0.064300
     10 C07         70.0170   -85.6500    -2.1420 c6         1 CJA      -0.012100
     11 C08         71.2680   -85.5300    -3.0100 c6         1 CJA      -0.014100
     12 C09         72.4430   -86.2120    -2.3770 ca         1 CJA      -0.187300
     13 C12         74.5100   -87.5320    -1.3270 ca         1 CJA       0.241300
     14 C14         75.3170   -89.8390     0.0100 c3         1 CJA      -0.090400
     15 C18         74.3070   -93.2250    -1.5590 c3         1 CJA      -0.081767
     16 C19         74.4190   -92.4910     0.8290 c3         1 CJA      -0.081767
     17 C23         70.9380   -87.9140    -1.4610 cd         1 CJA      -0.186500
     18 N11         74.7830   -86.4040    -1.9670 nb         1 CJA      -0.163000
     19 N21         73.3170   -88.0610    -1.1390 nb         1 CJA      -0.187000
     20 O16         75.0320   -90.6290    -2.2090 o          1 CJA      -0.492100
     21 S02         71.6500   -90.4710    -0.6050 ss         1 CJA      -0.024000
     22 S04         68.8650   -89.3290    -0.9870 ss         1 CJA       0.199000
     23 S13         75.9430   -88.2920    -0.6520 ss         1 CJA      -0.268300
     24 H1          73.9630   -84.8390    -3.0170 h4         1 CJA       0.023100
     25 H2          77.1010   -92.2440     0.2560 hc         1 CJA       0.039811
     26 H3          76.5550   -93.8670    -0.1490 hc         1 CJA       0.039811
     27 H4          77.0280   -92.7550    -1.4340 hc         1 CJA       0.039811
     28 H5          71.0920   -92.6980    -0.0910 h1         1 CJA       0.070033
     29 H6          69.7930   -91.6340     0.4520 h1         1 CJA       0.070033
     30 H7          69.9450   -92.0660    -1.2770 h1         1 CJA       0.070033
     31 H8          67.6310   -87.3220    -1.6440 h4         1 CJA       0.153000
     32 H9          70.1340   -85.0300    -1.2470 hc         1 CJA       0.056700
     33 H10         69.1460   -85.2690    -2.6760 hc         1 CJA       0.056700
     34 H11         71.0730   -85.9890    -3.9850 hc         1 CJA       0.055700
     35 H12         71.4990   -84.4810    -3.2010 hc         1 CJA       0.055700
     36 H13         74.3730   -89.6660     0.5330 h1         1 CJA       0.101700
     37 H14         76.0350   -90.1550     0.7680 h1         1 CJA       0.101700
     38 H15         74.2690   -94.2550    -1.2020 hc         1 CJA       0.039811
     39 H16         73.2790   -92.8800    -1.6950 hc         1 CJA       0.039811
     40 H17         74.7880   -93.2310    -2.5360 hc         1 CJA       0.039811
     41 H18         74.9500   -91.9290     1.5970 hc         1 CJA       0.039811
     42 H19         73.3800   -92.1600     0.8350 hc         1 CJA       0.039811
     43 H20         74.4300   -93.5390     1.1330 hc         1 CJA       0.039811
@<TRIPOS>BOND
     1     1    12 ar  
     2     1    18 ar  
     3     1    24 1   
     4     2     3 1   
     5     2    14 1   
     6     2    20 2   
     7     3     4 1   
     8     3    15 1   
     9     3    16 1   
    10     4    25 1   
    11     4    26 1   
    12     4    27 1   
    13     5    12 ar  
    14     5    17 1   
    15     5    19 ar  
    16     6    21 1   
    17     6    28 1   
    18     6    29 1   
    19     6    30 1   
    20     7    17 2   
    21     7    21 1   
    22     7    22 1   
    23     8     9 2   
    24     8    22 1   
    25     8    31 1   
    26     9    10 1   
    27     9    17 1   
    28    10    11 1   
    29    10    32 1   
    30    10    33 1   
    31    11    12 1   
    32    11    34 1   
    33    11    35 1   
    34    13    18 ar  
    35    13    19 ar  
    36    13    23 1   
    37    14    23 1   
    38    14    36 1   
    39    14    37 1   
    40    15    38 1   
    41    15    39 1   
    42    15    40 1   
    43    16    41 1   
    44    16    42 1   
    45    16    43 1   
@<TRIPOS>SUBSTRUCTURE
     1 CJA         1 TEMP              0 ****  ****    0 ROOT
