@<TRIPOS>MOLECULE
CJB
   33    34     1     0     0
SMALL
No Charge or Current Charge


@<TRIPOS>ATOM
      1 N1           1.3260    -0.0580     0.0790 n          1 CJB      -0.297000
      2 O2           2.0570     0.4060     2.2270 o          1 CJB      -0.549000
      3 C2           2.3120     0.1120     1.0700 c          1 CJB       0.634000
      4 N3           3.6020    -0.0800     0.6780 ns         1 CJB      -0.468500
      5 C4           4.0620    -0.4150    -0.5530 c          1 CJB       0.592200
      6 O4           5.2490    -0.5590    -0.7870 o          1 CJB      -0.528000
      7 C5           3.0040    -0.5810    -1.5440 cc         1 CJB      -0.385200
      8 C6           1.6770    -0.4050    -1.2260 cd         1 CJB       0.016600
      9 C1          -0.0970     0.1710     0.4270 c6         1 CJB       0.337700
     10 O5          -0.8530    -0.9440    -0.1010 os         1 CJB      -0.454000
     11 C9          -2.2680    -0.9170     0.2250 c6         1 CJB       0.181300
     12 C10         -2.9140    -2.2410    -0.3030 c3         1 CJB       0.172600
     13 O6          -2.2790    -3.4320     0.2090 oh         1 CJB      -0.706000
     14 C8          -2.9270     0.3680    -0.3820 c6         1 CJB       0.118300
     15 O7          -4.3270     0.4800    -0.0420 oh         1 CJB      -0.714000
     16 C3          -2.1660     1.6220     0.1420 c6         1 CJB       0.094300
     17 O3          -2.7120     2.8230    -0.4320 oh         1 CJB      -0.667000
     18 C7          -0.6480     1.5100    -0.1720 c6         1 CJB       0.124300
     19 O1           0.0270     2.6770     0.3380 oh         1 CJB      -0.700000
     20 HN3          4.3000     0.0430     1.3920 hn         1 CJB       0.343500
     21 H5           3.3300    -0.8510    -2.5430 ha         1 CJB       0.222000
     22 H6           0.8450    -0.5170    -1.9200 h4         1 CJB       0.210000
     23 H1          -0.2050     0.1950     1.5220 h2         1 CJB       0.101700
     24 H7          -2.3790    -0.9000     1.3200 h1         1 CJB       0.070700
     25 H8          -3.9770    -2.2410    -0.0270 h1         1 CJB       0.036700
     26 H6'A        -2.8620    -2.2310    -1.4010 h1         1 CJB       0.036700
     27 HO6         -2.7050    -4.2010    -0.2370 ho         1 CJB       0.507000
     28 H4          -2.8080     0.3270    -1.4760 h1         1 CJB       0.055700
     29 HO4         -4.8460     0.0310    -0.7510 ho         1 CJB       0.517000
     30 H3          -2.2850     1.6510     1.2370 h1         1 CJB       0.062700
     31 HO3         -3.6890     2.7010    -0.4010 ho         1 CJB       0.457000
     32 H2          -0.5290     1.4660    -1.2650 h1         1 CJB       0.053700
     33 HO2         -0.5980     3.4220     0.1580 ho         1 CJB       0.522000
@<TRIPOS>BOND
     1     1     3 1   
     2     1     8 1   
     3     1     9 1   
     4     2     3 2   
     5     3     4 1   
     6     4     5 1   
     7     4    20 1   
     8     5     6 2   
     9     5     7 1   
    10     7     8 2   
    11     7    21 1   
    12     8    22 1   
    13     9    10 1   
    14     9    18 1   
    15     9    23 1   
    16    10    11 1   
    17    11    12 1   
    18    11    14 1   
    19    11    24 1   
    20    12    13 1   
    21    12    25 1   
    22    12    26 1   
    23    13    27 1   
    24    14    15 1   
    25    14    16 1   
    26    14    28 1   
    27    15    29 1   
    28    16    17 1   
    29    16    18 1   
    30    16    30 1   
    31    17    31 1   
    32    18    19 1   
    33    18    32 1   
    34    19    33 1   
@<TRIPOS>SUBSTRUCTURE
     1 CJB         1 TEMP              0 ****  ****    0 ROOT
