@<TRIPOS>MOLECULE
CJB
   33    34     1     0     0
SMALL
abcg2


@<TRIPOS>ATOM
      1 N1           1.2380    -0.0320     0.0930 n          1 CJB      -0.297000
      2 O2           1.8590     0.2770     2.2720 o          1 CJB      -0.549000
      3 C2           2.1610     0.0650     1.1180 c          1 CJB       0.634000
      4 N3           3.4620    -0.1000     0.7240 ns         1 CJB      -0.468500
      5 C4           3.9480    -0.3500    -0.5500 c          1 CJB       0.592200
      6 O4           5.1430    -0.4720    -0.7440 o          1 CJB      -0.528000
      7 C5           2.9140    -0.4420    -1.5510 cc         1 CJB      -0.385200
      8 C6           1.6310    -0.2820    -1.1920 cd         1 CJB       0.016600
      9 C1          -0.1710     0.1500     0.3830 c6         1 CJB       0.337700
     10 O5          -0.8370    -0.9770    -0.1020 os         1 CJB      -0.454000
     11 C9          -2.2230    -0.9980     0.2000 c6         1 CJB       0.181300
     12 C10         -2.7800    -2.3030    -0.3240 c3         1 CJB       0.172600
     13 O6          -2.1590    -3.3670     0.3560 oh         1 CJB      -0.706000
     14 C8          -2.9050     0.2170    -0.4310 c6         1 CJB       0.118300
     15 O7          -4.2580     0.2020    -0.0510 oh         1 CJB      -0.714000
     16 C3          -2.2090     1.4940     0.0380 c6         1 CJB       0.094300
     17 O3          -2.7460     2.6240    -0.6150 oh         1 CJB      -0.667000
     18 C7          -0.7180     1.4200    -0.2630 c6         1 CJB       0.124300
     19 O1          -0.0030     2.4990     0.2690 oh         1 CJB      -0.700000
     20 HN3          4.1470    -0.0300     1.4670 hn         1 CJB       0.343500
     21 H5           3.1780    -0.6410    -2.5780 ha         1 CJB       0.222000
     22 H6           0.8380    -0.3560    -1.9220 h4         1 CJB       0.210000
     23 H1          -0.2680     0.2320     1.4710 h2         1 CJB       0.101700
     24 H7          -2.3640    -0.9580     1.2920 h1         1 CJB       0.070700
     25 H8          -3.8640    -2.2990    -0.1690 h1         1 CJB       0.036700
     26 H6'A        -2.6090    -2.3530    -1.4080 h1         1 CJB       0.036700
     27 HO6         -2.5820    -4.1840     0.0770 ho         1 CJB       0.507000
     28 H4          -2.8000     0.1430    -1.5250 h1         1 CJB       0.055700
     29 HO4         -4.7130     0.9060    -0.5250 ho         1 CJB       0.517000
     30 H3          -2.3370     1.5790     1.1270 h1         1 CJB       0.062700
     31 HO3         -3.3120     3.1040    -0.0040 ho         1 CJB       0.457000
     32 H2          -0.5880     1.3540    -1.3560 h1         1 CJB       0.053700
     33 HO2         -0.3530     3.3100    -0.1160 ho         1 CJB       0.522000
@<TRIPOS>BOND
     1     1     3 1   
     2     1     8 1   
     3     1     9 1   
     4     2     3 2   
     5     3     4 1   
     6     4     5 1   
     7     4    20 1   
     8     5     6 2   
     9     5     7 1   
    10     7     8 2   
    11     7    21 1   
    12     8    22 1   
    13     9    10 1   
    14     9    18 1   
    15     9    23 1   
    16    10    11 1   
    17    11    12 1   
    18    11    14 1   
    19    11    24 1   
    20    12    13 1   
    21    12    25 1   
    22    12    26 1   
    23    13    27 1   
    24    14    15 1   
    25    14    16 1   
    26    14    28 1   
    27    15    29 1   
    28    16    17 1   
    29    16    18 1   
    30    16    30 1   
    31    17    31 1   
    32    18    19 1   
    33    18    32 1   
    34    19    33 1   
@<TRIPOS>SUBSTRUCTURE
     1 CJB         1 TEMP              0 ****  ****    0 ROOT
