@<TRIPOS>MOLECULE
CJC
   49    53     1     0     0
SMALL
No Charge or Current Charge


@<TRIPOS>ATOM
      1 O47         -8.3010     0.1980     0.7780 o          1 CJC      -0.521000
      2 C28         -7.1990     0.3210     0.2560 c          1 CJC       0.424700
      3 C27         -6.8690     0.0700    -1.1820 cc         1 CJC       0.384200
      4 N29         -6.1020     0.7200     0.9660 ns         1 CJC      -0.365100
      5 C22         -4.8230     0.8740     0.4110 ca         1 CJC       0.003600
      6 C23         -4.6250     0.6050    -0.9770 ca         1 CJC       0.210000
      7 N26         -5.6870     0.1840    -1.8190 nd         1 CJC      -0.564700
      8 N24         -3.3940     0.7530    -1.5170 nb         1 CJC      -0.081000
      9 C25         -2.3610     1.1500    -0.7460 ca         1 CJC       0.110900
     10 C20         -2.4880     1.4250     0.6270 ca         1 CJC      -0.142000
     11 C21         -3.7500     1.2870     1.2180 ca         1 CJC      -0.075000
     12 S19         -1.0820     1.9510     1.6060 ss         1 CJC      -0.085300
     13 C10          0.1610     0.7960     1.0360 ca         1 CJC       0.295300
     14 N9           1.3250     1.3280     0.5990 nb         1 CJC      -0.306000
     15 C8           2.2680     0.4700     0.1610 ca         1 CJC       0.462900
     16 N13          3.4860     1.0410    -0.2450 nh         1 CJC      -0.774300
     17 C14          3.5510     2.2490    -1.1110 c5         1 CJC       0.223800
     18 C15          5.0510     2.6400    -1.0040 c5         1 CJC      -0.141400
     19 C16          5.3790     2.3090     0.4750 c5         1 CJC       0.143500
     20 N18          4.8210     3.3190     1.4060 n8         1 CJC      -0.994200
     21 C17          4.7230     0.8890     0.5780 c5         1 CJC       0.221800
     22 C3           2.0010    -0.9080     0.1630 ca         1 CJC      -0.232800
     23 C2           0.7960    -1.3660     0.6370 ca         1 CJC       0.158500
     24 N11         -0.1470    -0.5220     1.0840 nb         1 CJC      -0.244000
     25 N1           0.7880    -2.7480     0.5370 na         1 CJC      -0.303400
     26 C5           1.9830    -3.2250    -0.0330 cc         1 CJC      -0.066300
     27 C4           2.7280    -2.0820    -0.2680 cd         1 CJC       0.080800
     28 Cl1          4.2720    -2.0480    -1.0620 cl         1 CJC      -0.166000
     29 C6           2.2870    -4.6700    -0.3240 c3         1 CJC      -0.019200
     30 C7           2.8330    -5.4180     0.9060 c3         1 CJC      -0.089100
     31 H1          -7.7150    -0.2480    -1.7740 h4         1 CJC       0.058800
     32 H2          -6.2310     0.9140     1.9530 hn         1 CJC       0.332500
     33 H3          -1.4020     1.2520    -1.2520 h4         1 CJC       0.042100
     34 H4          -3.8920     1.4940     2.2760 ha         1 CJC       0.138000
     35 H5           3.2610     2.0360    -2.1490 h1         1 CJC       0.062200
     36 H6           2.9060     3.0550    -0.7330 h1         1 CJC       0.062200
     37 H7           5.6600     2.0330    -1.6840 hc         1 CJC       0.060200
     38 H8           5.2290     3.6890    -1.2640 hc         1 CJC       0.060200
     39 H9           6.4660     2.2620     0.6410 h1         1 CJC       0.079700
     40 H10          5.0220     4.2580     1.0460 hn         1 CJC       0.400500
     41 H11          3.7970     3.2560     1.3620 hn         1 CJC       0.400500
     42 H13          4.5100     0.6150     1.6210 h1         1 CJC       0.071700
     43 H14          5.3930     0.1260     0.1600 h1         1 CJC       0.071700
     44 H15          0.0100    -3.3290     0.8280 hn         1 CJC       0.368000
     45 H16          1.3790    -5.1760    -0.6760 hc         1 CJC       0.059700
     46 H17          3.0150    -4.7440    -1.1400 hc         1 CJC       0.059700
     47 H18          3.7620    -4.9530     1.2570 hc         1 CJC       0.040367
     48 H19          2.1050    -5.3980     1.7260 hc         1 CJC       0.040367
     49 H20          3.0440    -6.4640     0.6570 hc         1 CJC       0.040367
@<TRIPOS>BOND
     1     1     2 2   
     2     2     3 1   
     3     2     4 1   
     4     3     7 2   
     5     3    31 1   
     6     4     5 1   
     7     4    32 1   
     8     5     6 ar  
     9     5    11 ar  
    10     6     7 1   
    11     6     8 ar  
    12     8     9 ar  
    13     9    10 ar  
    14     9    33 1   
    15    10    11 ar  
    16    10    12 1   
    17    11    34 1   
    18    12    13 1   
    19    13    14 ar  
    20    13    24 ar  
    21    14    15 ar  
    22    15    16 1   
    23    15    22 ar  
    24    16    17 1   
    25    16    21 1   
    26    17    18 1   
    27    17    35 1   
    28    17    36 1   
    29    18    19 1   
    30    18    37 1   
    31    18    38 1   
    32    19    20 1   
    33    19    21 1   
    34    19    39 1   
    35    20    40 1   
    36    20    41 1   
    37    21    42 1   
    38    21    43 1   
    39    22    23 ar  
    40    22    27 1   
    41    23    24 ar  
    42    23    25 1   
    43    25    26 1   
    44    25    44 1   
    45    26    27 2   
    46    26    29 1   
    47    27    28 1   
    48    29    30 1   
    49    29    45 1   
    50    29    46 1   
    51    30    47 1   
    52    30    48 1   
    53    30    49 1   
@<TRIPOS>SUBSTRUCTURE
     1 CJC         1 TEMP              0 ****  ****    0 ROOT
