@<TRIPOS>MOLECULE
CJC
   49    53     1     0     0
SMALL
bcc


@<TRIPOS>ATOM
      1 O47         -7.7720     0.2260     1.9160 o          1 CJC      -0.596500
      2 C28         -6.8790     0.1630     1.0910 c          1 CJC       0.567200
      3 C27         -6.9440    -0.6960    -0.1080 cc         1 CJC       0.384200
      4 N29         -5.7210     0.8760     1.1810 ns         1 CJC      -0.432100
      5 C22         -4.7170     0.8000     0.2550 ca         1 CJC      -0.061700
      6 C23         -4.8830    -0.0470    -0.8460 ca         1 CJC       0.538300
      7 N26         -6.0290    -0.7890    -0.9960 nd         1 CJC      -0.564700
      8 N24         -3.9540    -0.1710    -1.7950 nb         1 CJC      -0.607000
      9 C25         -2.8470     0.5210    -1.6900 ca         1 CJC       0.439200
     10 C20         -2.5830     1.3790    -0.6100 ca         1 CJC      -0.080400
     11 C21         -3.5300     1.5240     0.3770 ca         1 CJC      -0.093000
     12 S19         -1.0920     2.3170    -0.5540 ss         1 CJC      -0.212200
     13 C10          0.1340     1.0420    -0.4030 ca         1 CJC       0.821300
     14 N9           1.3590     1.5280    -0.4730 nb         1 CJC      -0.832000
     15 C8           2.4120     0.7060    -0.3500 ca         1 CJC       0.791200
     16 N13          3.6040     1.3130    -0.3120 nh         1 CJC      -0.774300
     17 C14          3.7090     2.7650    -0.4800 c5         1 CJC       0.223800
     18 C15          5.1900     3.0380    -0.2630 c5         1 CJC      -0.141400
     19 C16          5.6040     1.9520     0.7350 c5         1 CJC       0.143500
     20 N18          5.2300     2.2000     2.1180 n8         1 CJC      -0.883800
     21 C17          4.8520     0.7440     0.1830 c5         1 CJC       0.221800
     22 C3           2.1630    -0.6970    -0.2760 ca         1 CJC      -0.363400
     23 C2           0.7980    -1.0330    -0.1860 ca         1 CJC       0.486800
     24 N11         -0.2420    -0.1970    -0.2220 nb         1 CJC      -0.770000
     25 N1           0.6820    -2.3730    -0.1030 na         1 CJC      -0.253100
     26 C5           1.9160    -2.9620    -0.1860 cc         1 CJC      -0.066300
     27 C4           2.8440    -1.9650    -0.2940 cd         1 CJC       0.005200
     28 CL1          4.5130    -2.3230    -0.4990 cl         1 CJC      -0.090400
     29 C6           2.0860    -4.4380    -0.1170 c3         1 CJC      -0.019200
     30 C7           2.1510    -4.9510     1.3220 c3         1 CJC      -0.089100
     31 H1          -7.8480    -1.2840    -0.2260 h4         1 CJC       0.058800
     32 H2          -5.6060     1.4890     1.9790 hn         1 CJC       0.332500
     33 H3          -2.1160     0.4110    -2.4830 h4         1 CJC       0.042100
     34 H4          -3.3640     2.1740     1.2270 ha         1 CJC       0.156000
     35 H5           3.3580     3.0710    -1.4660 h1         1 CJC       0.062200
     36 H6           3.0890     3.2840     0.2550 h1         1 CJC       0.062200
     37 H7           5.7440     2.9200    -1.1970 hc         1 CJC       0.060200
     38 H8           5.3760     4.0470     0.1060 hc         1 CJC       0.060200
     39 H9           6.6790     1.7690     0.7030 h1         1 CJC       0.079700
     40 H10          5.6780     3.0500     2.4400 hn         1 CJC       0.345300
     41 H11          4.2340     2.3690     2.1960 hn         1 CJC       0.345300
     42 H13          4.6690    -0.0020     0.9550 h1         1 CJC       0.071700
     43 H14          5.4250     0.2810    -0.6210 h1         1 CJC       0.071700
     44 H15         -0.1960    -2.8680    -0.0450 hn         1 CJC       0.317700
     45 H16          1.2610    -4.9210    -0.6460 hc         1 CJC       0.059700
     46 H17          2.9970    -4.7170    -0.6460 hc         1 CJC       0.059700
     47 H18          2.9970    -4.5150     1.8530 hc         1 CJC       0.040367
     48 H19          1.2440    -4.7040     1.8730 hc         1 CJC       0.040367
     49 H20          2.2670    -6.0340     1.3360 hc         1 CJC       0.040367
@<TRIPOS>BOND
     1     1     2 2   
     2     2     3 1   
     3     2     4 1   
     4     3     7 2   
     5     3    31 1   
     6     4     5 1   
     7     4    32 1   
     8     5     6 ar  
     9     5    11 ar  
    10     6     7 1   
    11     6     8 ar  
    12     8     9 ar  
    13     9    10 ar  
    14     9    33 1   
    15    10    11 ar  
    16    10    12 1   
    17    11    34 1   
    18    12    13 1   
    19    13    14 ar  
    20    13    24 ar  
    21    14    15 ar  
    22    15    16 1   
    23    15    22 ar  
    24    16    17 1   
    25    16    21 1   
    26    17    18 1   
    27    17    35 1   
    28    17    36 1   
    29    18    19 1   
    30    18    37 1   
    31    18    38 1   
    32    19    20 1   
    33    19    21 1   
    34    19    39 1   
    35    20    40 1   
    36    20    41 1   
    37    21    42 1   
    38    21    43 1   
    39    22    23 ar  
    40    22    27 1   
    41    23    24 ar  
    42    23    25 1   
    43    25    26 1   
    44    25    44 1   
    45    26    27 2   
    46    26    29 1   
    47    27    28 1   
    48    29    30 1   
    49    29    45 1   
    50    29    46 1   
    51    30    47 1   
    52    30    48 1   
    53    30    49 1   
@<TRIPOS>SUBSTRUCTURE
     1 CJC         1 TEMP              0 ****  ****    0 ROOT
