@<TRIPOS>MOLECULE
CJD
   55    58     1     0     0
SMALL
bcc


@<TRIPOS>ATOM
      1 C4          -1.1130    -2.1340     0.4460 ca         1 CJD      -0.030300
      2 C5          -0.6430    -0.8240     0.5750 ca         1 CJD      -0.131600
      3 C6          -1.5170     0.2490     0.3650 ca         1 CJD       0.086400
      4 C8           0.7720    -0.6240     1.0470 c          1 CJD       0.718100
      5 C10          1.2070    -2.7730    -0.0050 c6         1 CJD       0.115000
      6 C13          3.7400    -0.3400     0.3690 cc         1 CJD      -0.321400
      7 C15          4.8040     1.8420     0.2000 cd         1 CJD      -0.317000
      8 C22          4.4120     2.1250     2.9460 c3         1 CJD       0.129700
      9 C26         -4.2810     1.1700    -1.6390 cy         1 CJD      -0.126700
     10 C1          -2.8630     0.0420     0.0810 ca         1 CJD      -0.129300
     11 C2          -3.3290    -1.2670     0.0360 ca         1 CJD      -0.080000
     12 C3          -2.4680    -2.3300     0.2070 ca         1 CJD       0.012400
     13 CL7         -0.9230     1.8770     0.3820 cl         1 CJD      -0.076400
     14 N9           1.6430    -1.5960     0.7240 n          1 CJD      -0.469800
     15 C11         -0.1210    -3.2510     0.5420 c6         1 CJD      -0.061100
     16 C12          3.0420    -1.4390     1.1150 c3         1 CJD       0.195200
     17 C14          4.1940     0.8150     0.9690 cd         1 CJD       0.270100
     18 C16          4.9520     1.6660    -1.1410 cc         1 CJD       0.107400
     19 N17          4.5190     0.5190    -1.7100 ns         1 CJD      -0.436100
     20 C18          3.9150    -0.5300    -1.0370 c          1 CJD       0.720700
     21 O19          3.5750    -1.5340    -1.6660 o          1 CJD      -0.660500
     22 O21          4.0640     0.9190     2.2900 os         1 CJD      -0.293900
     23 O23          1.0830     0.3440     1.7200 o          1 CJD      -0.618500
     24 CL24        -3.1130    -3.9360     0.1210 cl         1 CJD      -0.102400
     25 C25         -3.8740     1.1460    -0.1780 c3         1 CJD       0.205400
     26 C27         -5.0660     2.4050    -2.0920 cy         1 CJD       0.124400
     27 O28         -4.0290     2.7870    -3.0060 oq         1 CJD      -0.408600
     28 C29         -3.2320     1.6510    -2.6480 cy         1 CJD       0.124400
     29 O30         -5.0480     0.9380     0.5640 os         1 CJD      -0.406600
     30 C31         -4.8880     1.1630     1.9470 c3         1 CJD       0.118700
     31 H1           1.1200    -2.5640    -1.0740 h1         1 CJD       0.061700
     32 H2           1.9610    -3.5470     0.1130 h1         1 CJD       0.061700
     33 H4           5.1660     2.7550     0.6460 ha         1 CJD       0.151000
     34 H5           6.4990     2.2630    -2.4870 hc         1 CJD       0.060700
     35 H6           4.9210     2.9500    -2.8540 hc         1 CJD       0.060700
     36 H7           5.8540     3.5670    -1.4870 hc         1 CJD       0.060700
     37 H8           5.4780     2.3460     2.8580 h1         1 CJD       0.045033
     38 H9           3.8380     2.9740     2.5700 h1         1 CJD       0.045033
     39 H10          4.1720     1.9790     3.9960 h1         1 CJD       0.045033
     40 H11         -4.7480     0.2220    -1.9130 hc         1 CJD       0.078700
     41 H12         -4.3790    -1.4500    -0.1490 ha         1 CJD       0.162000
     42 H13         -0.0130    -3.5820     1.5800 hc         1 CJD       0.072700
     43 H14         -0.4570    -4.1130    -0.0330 hc         1 CJD       0.072700
     44 H15          3.5290    -2.3920     0.9130 h1         1 CJD       0.061200
     45 H16          3.1010    -1.2750     2.1900 h1         1 CJD       0.061200
     46 H17         -3.4380     2.1180     0.0850 h1         1 CJD       0.061700
     47 H18         -6.0130     2.1980    -2.5970 h1         1 CJD       0.055950
     48 H19         -5.2390     3.1600    -1.3180 h1         1 CJD       0.055950
     49 H20         -2.2620     1.9370    -2.2300 h1         1 CJD       0.055950
     50 H21         -3.0610     0.9760    -3.4900 h1         1 CJD       0.055950
     51 H22         -5.8640     1.0470     2.4150 h1         1 CJD       0.035367
     52 H23         -4.1980     0.4490     2.4080 h1         1 CJD       0.035367
     53 H24         -4.5200     2.1740     2.1500 h1         1 CJD       0.035367
     54 H3           4.6450     0.3930    -2.7050 hn         1 CJD       0.325500
     55 C20          5.5910     2.6690    -2.0390 c3         1 CJD      -0.075900
@<TRIPOS>BOND
     1     1     2 ar  
     2     1    12 ar  
     3     1    15 1   
     4     2     3 ar  
     5     2     4 1   
     6     3    10 ar  
     7     3    13 1   
     8     4    14 1   
     9     4    23 2   
    10     5    14 1   
    11     5    15 1   
    12     5    31 1   
    13     5    32 1   
    14     6    16 1   
    15     6    17 2   
    16     6    20 1   
    17     7    17 1   
    18     7    18 2   
    19     7    33 1   
    20     8    22 1   
    21     8    37 1   
    22     8    38 1   
    23     8    39 1   
    24     9    25 1   
    25     9    26 1   
    26     9    28 1   
    27     9    40 1   
    28    10    11 ar  
    29    10    25 1   
    30    11    12 ar  
    31    11    41 1   
    32    12    24 1   
    33    14    16 1   
    34    15    42 1   
    35    15    43 1   
    36    16    44 1   
    37    16    45 1   
    38    17    22 1   
    39    18    19 1   
    40    18    55 1   
    41    19    20 1   
    42    19    54 1   
    43    20    21 2   
    44    25    29 1   
    45    25    46 1   
    46    26    27 1   
    47    26    47 1   
    48    26    48 1   
    49    27    28 1   
    50    28    49 1   
    51    28    50 1   
    52    29    30 1   
    53    30    51 1   
    54    30    52 1   
    55    30    53 1   
    56    34    55 1   
    57    35    55 1   
    58    36    55 1   
@<TRIPOS>SUBSTRUCTURE
     1 CJD         1 TEMP              0 ****  ****    0 ROOT
