@<TRIPOS>MOLECULE
CJD
   55    58     1     0     0
SMALL
No Charge or Current Charge


@<TRIPOS>ATOM
      1 C4          -0.9320    -1.7120    -0.1480 ca         1 CJD      -0.030300
      2 C5          -0.7750    -0.6260     0.7530 ca         1 CJD      -0.131600
      3 C6          -1.8620     0.2770     0.9450 ca         1 CJD       0.178000
      4 C8           0.5460    -0.4790     1.5010 c          1 CJD       0.575600
      5 C10          1.5780    -1.9000    -0.3010 c6         1 CJD       0.115000
      6 C13          4.0120    -0.4240     0.6440 cc         1 CJD      -0.321400
      7 C15          4.9820     1.4030    -0.6710 cd         1 CJD      -0.367000
      8 C22          2.8780     3.0770     0.3770 c3         1 CJD       0.152900
      9 C26         -4.5440     1.8620    -0.8100 cy         1 CJD      -0.126700
     10 C1          -3.0960     0.0640     0.2770 ca         1 CJD      -0.129300
     11 C2          -3.2320    -1.0430    -0.5810 ca         1 CJD      -0.062000
     12 C3          -2.1680    -1.9220    -0.7960 ca         1 CJD       0.104000
     13 Cl7         -1.6910     1.7260     1.9540 cl         1 CJD      -0.168000
     14 N9           1.6700    -1.1430     0.9590 n          1 CJD      -0.402800
     15 C11          0.2490    -2.6570    -0.3860 c6         1 CJD      -0.061100
     16 C12          3.0040    -1.0330     1.5950 c3         1 CJD       0.195200
     17 C14          3.9930     0.8970     0.2460 cd         1 CJD       0.270100
     18 C16          5.9470     0.5450    -1.1380 cc         1 CJD       0.107400
     19 N17          5.9510    -0.7650    -0.7240 ns         1 CJD      -0.369100
     20 C18          5.0580    -1.3370     0.1380 c          1 CJD       0.578200
     21 O19          5.1560    -2.5180     0.4340 o          1 CJD      -0.585000
     22 O21          2.9990     1.6950     0.7520 os         1 CJD      -0.317100
     23 O23          0.6340     0.1100     2.5700 o          1 CJD      -0.543000
     24 Cl24        -2.4360    -3.2890    -1.8820 cl         1 CJD      -0.194000
     25 C25         -4.2980     1.0090     0.4440 c3         1 CJD       0.228600
     26 C27         -5.5210     3.0710    -0.6770 cy         1 CJD       0.147600
     27 O28         -4.3460     3.8940    -0.3440 oq         1 CJD      -0.455000
     28 C29         -3.5110     2.9840    -1.1430 cy         1 CJD       0.147600
     29 O30         -5.4950     0.2360     0.6590 os         1 CJD      -0.453000
     30 C31         -5.5680    -0.4380     1.9300 c3         1 CJD       0.141900
     31 H1           1.6570    -1.1980    -1.1440 h1         1 CJD       0.061700
     32 H2           2.4100    -2.6130    -0.3800 h1         1 CJD       0.061700
     33 H4           4.9860     2.4360    -1.0000 ha         1 CJD       0.201000
     34 H5           8.0340     0.7310    -1.6390 hc         1 CJD       0.060700
     35 H6           6.9890     0.2950    -3.0070 hc         1 CJD       0.060700
     36 H7           6.9970     1.9540    -2.3890 hc         1 CJD       0.060700
     37 H8           3.7770     3.6390     0.6620 h1         1 CJD       0.045033
     38 H9           2.7240     3.1770    -0.7050 h1         1 CJD       0.045033
     39 H10          2.0190     3.5330     0.8850 h1         1 CJD       0.045033
     40 H11         -4.7660     1.1980    -1.6510 hc         1 CJD       0.078700
     41 H12         -4.1750    -1.2230    -1.0930 ha         1 CJD       0.144000
     42 H13          0.2320    -3.4610     0.3630 hc         1 CJD       0.072700
     43 H14          0.1960    -3.1410    -1.3690 hc         1 CJD       0.072700
     44 H15          3.3130    -2.0330     1.9270 h1         1 CJD       0.061200
     45 H16          2.9610    -0.4090     2.4970 h1         1 CJD       0.061200
     46 H17         -4.1570     1.6970     1.2860 h1         1 CJD       0.061700
     47 H18         -5.9900     3.3920    -1.6150 h1         1 CJD       0.055950
     48 H19         -6.2470     3.0160     0.1430 h1         1 CJD       0.055950
     49 H20         -2.5050     2.8540    -0.7280 h1         1 CJD       0.055950
     50 H21         -3.4790     3.2830    -2.1980 h1         1 CJD       0.055950
     51 H22         -6.5200    -0.9750     2.0210 h1         1 CJD       0.035367
     52 H23         -4.7550    -1.1690     2.0370 h1         1 CJD       0.035367
     53 H24         -5.5010     0.2800     2.7570 h1         1 CJD       0.035367
     54 H3           6.6660    -1.3910    -1.0710 hn         1 CJD       0.325500
     55 C20          7.0510     0.8990    -2.0940 c3         1 CJD      -0.075900
@<TRIPOS>BOND
     1     1     2 ar  
     2     1    12 ar  
     3     1    15 1   
     4     2     3 ar  
     5     2     4 1   
     6     3    10 ar  
     7     3    13 1   
     8     4    14 1   
     9     4    23 2   
    10     5    14 1   
    11     5    15 1   
    12     5    31 1   
    13     5    32 1   
    14     6    16 1   
    15     6    17 2   
    16     6    20 1   
    17     7    17 1   
    18     7    18 2   
    19     7    33 1   
    20     8    22 1   
    21     8    37 1   
    22     8    38 1   
    23     8    39 1   
    24     9    25 1   
    25     9    26 1   
    26     9    28 1   
    27     9    40 1   
    28    10    11 ar  
    29    10    25 1   
    30    11    12 ar  
    31    11    41 1   
    32    12    24 1   
    33    14    16 1   
    34    15    42 1   
    35    15    43 1   
    36    16    44 1   
    37    16    45 1   
    38    17    22 1   
    39    18    19 1   
    40    18    55 1   
    41    19    20 1   
    42    19    54 1   
    43    20    21 2   
    44    25    29 1   
    45    25    46 1   
    46    26    27 1   
    47    26    47 1   
    48    26    48 1   
    49    27    28 1   
    50    28    49 1   
    51    28    50 1   
    52    29    30 1   
    53    30    51 1   
    54    30    52 1   
    55    30    53 1   
    56    34    55 1   
    57    35    55 1   
    58    36    55 1   
@<TRIPOS>SUBSTRUCTURE
     1 CJD         1 TEMP              0 ****  ****    0 ROOT
