@<TRIPOS>MOLECULE
CJE
   22    21     1     0     0
SMALL
abcg2


@<TRIPOS>ATOM
      1 CAH          3.6160    -0.2010    -0.7850 c3         1 CJE      -0.097100
      2 CAG          2.6470     0.5340     0.1080 c3         1 CJE       0.167600
      3 OAF          1.4030    -0.1850     0.0860 os         1 CJE      -0.437100
      4 CAD          0.4200     0.2450     0.8520 c          1 CJE       0.611100
      5 OAE          0.4970     1.2080     1.5750 o          1 CJE      -0.489000
      6 CAC         -0.8410    -0.5820     0.7200 c3         1 CJE      -0.231700
      7 CAI         -0.6240    -2.0190     0.2370 c3         1 CJE      -0.074100
      8 CAB         -1.7900     0.1360    -0.2310 c          1 CJE       0.583100
      9 OAJ         -1.3700     0.8930    -1.0750 o          1 CJE      -0.503100
     10 CAA         -3.2490    -0.1470    -0.0430 c3         1 CJE      -0.198100
     11 H1           3.8070    -1.2110    -0.4240 hc         1 CJE       0.046700
     12 H2           3.2520    -0.2590    -1.8110 hc         1 CJE       0.046700
     13 H3           4.5650     0.3350    -0.7980 hc         1 CJE       0.046700
     14 H4           3.0220     0.5880     1.1310 h1         1 CJE       0.050200
     15 H5           2.4830     1.5540    -0.2450 h1         1 CJE       0.050200
     16 H6          -1.3080    -0.6130     1.7080 hc         1 CJE       0.089700
     17 H7          -1.5610    -2.5730     0.2570 hc         1 CJE       0.047700
     18 H8          -0.2320    -2.0550    -0.7780 hc         1 CJE       0.047700
     19 H9           0.0720    -2.5390     0.8930 hc         1 CJE       0.047700
     20 H10         -3.4370    -1.1920     0.2010 hc         1 CJE       0.064700
     21 H11         -3.5990     0.4400     0.8110 hc         1 CJE       0.064700
     22 H12         -3.8290     0.1380    -0.9180 hc         1 CJE       0.064700
@<TRIPOS>BOND
     1     1     2 1   
     2     1    11 1   
     3     1    12 1   
     4     1    13 1   
     5     2     3 1   
     6     2    14 1   
     7     2    15 1   
     8     3     4 1   
     9     4     5 2   
    10     4     6 1   
    11     6     7 1   
    12     6     8 1   
    13     6    16 1   
    14     7    17 1   
    15     7    18 1   
    16     7    19 1   
    17     8     9 2   
    18     8    10 1   
    19    10    20 1   
    20    10    21 1   
    21    10    22 1   
@<TRIPOS>SUBSTRUCTURE
     1 CJE         1 TEMP              0 ****  ****    0 ROOT
