@<TRIPOS>MOLECULE
CJE
   22    21     1     0     0
SMALL
No Charge or Current Charge


@<TRIPOS>ATOM
      1 CAH          3.1300     0.6480    -1.0970 c3         1 CJE      -0.097100
      2 CAG          2.4120     0.5700     0.2590 c3         1 CJE       0.167600
      3 OAF          1.1960    -0.1710     0.0580 os         1 CJE      -0.437100
      4 CAD          0.3830    -0.3850     1.1380 c          1 CJE       0.611100
      5 OAE          0.5550     0.1400     2.2290 o          1 CJE      -0.489000
      6 CAC         -0.9200    -1.0890     0.7640 c3         1 CJE      -0.231700
      7 CAI         -0.7270    -2.6270     0.6910 c3         1 CJE      -0.074100
      8 CAB         -1.4790    -0.5080    -0.5390 c          1 CJE       0.583100
      9 OAJ         -1.0820    -0.8530    -1.6450 o          1 CJE      -0.503100
     10 CAA         -2.5630     0.5590    -0.3910 c3         1 CJE      -0.198100
     11 H1           3.3650    -0.3560    -1.4690 hc         1 CJE       0.046700
     12 H2           2.5020     1.1580    -1.8380 hc         1 CJE       0.046700
     13 H3           4.0680     1.2070    -0.9980 hc         1 CJE       0.046700
     14 H4           3.0600     0.0680     0.9890 h1         1 CJE       0.050200
     15 H5           2.1980     1.5850     0.6190 h1         1 CJE       0.050200
     16 H6          -1.6180    -0.8540     1.5750 hc         1 CJE       0.089700
     17 H7          -1.6750    -3.1250     0.4500 hc         1 CJE       0.047700
     18 H8           0.0080    -2.8970    -0.0780 hc         1 CJE       0.047700
     19 H9          -0.3730    -3.0180     1.6520 hc         1 CJE       0.047700
     20 H10         -3.4050     0.1330     0.1670 hc         1 CJE       0.064700
     21 H11         -2.2050     1.3410     0.2880 hc         1 CJE       0.064700
     22 H12         -2.8860     0.9700    -1.3540 hc         1 CJE       0.064700
@<TRIPOS>BOND
     1     1     2 1   
     2     1    11 1   
     3     1    12 1   
     4     1    13 1   
     5     2     3 1   
     6     2    14 1   
     7     2    15 1   
     8     3     4 1   
     9     4     5 2   
    10     4     6 1   
    11     6     7 1   
    12     6     8 1   
    13     6    16 1   
    14     7    17 1   
    15     7    18 1   
    16     7    19 1   
    17     8     9 2   
    18     8    10 1   
    19    10    20 1   
    20    10    21 1   
    21    10    22 1   
@<TRIPOS>SUBSTRUCTURE
     1 CJE         1 TEMP              0 ****  ****    0 ROOT
