@<TRIPOS>MOLECULE
CJF
   34    36     1     0     0
SMALL
No Charge or Current Charge


@<TRIPOS>ATOM
      1 N01         26.7490    10.5660   -14.1600 nv         1 CJF      -1.054900
      2 C02         27.3820     9.7010   -14.9780 ca         1 CJF       0.434900
      3 N03         28.7000     9.5970   -14.8090 nb         1 CJF      -0.355000
      4 C04         29.3380     8.7340   -15.6200 ca         1 CJF       0.444900
      5 C05         28.6290     7.9950   -16.5770 ca         1 CJF      -0.405000
      6 C06         27.2500     8.1960   -16.6500 ca         1 CJF       0.436900
      7 N07         26.4480     7.5230   -17.5520 nu         1 CJF      -0.913100
      8 C08         26.8610     6.5330   -18.5070 cx         1 CJF       0.165500
      9 C09         27.4220     7.0240   -19.8180 cx         1 CJF      -0.133400
     10 C10         26.0470     6.4030   -19.7700 cx         1 CJF      -0.133400
     11 N11         26.6110     9.0520   -15.8510 nb         1 CJF      -0.351000
     12 N12         30.7400     8.6180   -15.4570 nh         1 CJF      -0.779300
     13 C13         31.5720     7.8170   -16.4210 c6         1 CJF       0.183800
     14 C14         33.0850     8.1850   -16.3770 c6         1 CJF       0.140600
     15 O15         33.5840     8.1700   -15.0210 os         1 CJF      -0.446000
     16 C16         32.8960     9.1190   -14.1760 c6         1 CJF       0.140600
     17 C17         31.3740     8.7990   -14.1000 c6         1 CJF       0.183800
     18 H1          25.7370    10.5020   -14.0920 hn         1 CJF       0.483500
     19 H2          27.2450    10.9010   -13.3390 hn         1 CJF       0.483500
     20 H3          29.1190     7.2860   -17.2310 ha         1 CJF       0.130000
     21 H4          25.4620     7.7730   -17.4720 hn         1 CJF       0.504000
     22 H5          27.2900     5.6220   -18.0800 h1         1 CJF       0.077700
     23 H6          28.2250     6.4460   -20.2670 hc         1 CJF       0.079200
     24 H7          27.4910     8.0970   -19.9730 hc         1 CJF       0.079200
     25 H8          25.1910     7.0600   -19.9020 hc         1 CJF       0.079200
     26 H9          25.9250     5.4070   -20.1870 hc         1 CJF       0.079200
     27 H10         31.2270     7.9810   -17.4520 h1         1 CJF       0.057950
     28 H11         31.4630     6.7440   -16.2060 h1         1 CJF       0.057950
     29 H12         33.6600     7.4690   -16.9800 h1         1 CJF       0.052950
     30 H13         33.2370     9.1870   -16.8050 h1         1 CJF       0.052950
     31 H14         33.3330     9.0870   -13.1680 h1         1 CJF       0.052950
     32 H15         33.0440    10.1320   -14.5770 h1         1 CJF       0.052950
     33 H16         30.8960     9.6180   -13.5430 h1         1 CJF       0.057950
     34 H17         31.2370     7.8850   -13.5040 h1         1 CJF       0.057950
@<TRIPOS>BOND
     1     1     2 1   
     2     1    18 1   
     3     1    19 1   
     4     2     3 ar  
     5     2    11 ar  
     6     3     4 ar  
     7     4     5 ar  
     8     4    12 1   
     9     5     6 ar  
    10     5    20 1   
    11     6     7 1   
    12     6    11 ar  
    13     7     8 1   
    14     7    21 1   
    15     8     9 1   
    16     8    10 1   
    17     8    22 1   
    18     9    10 1   
    19     9    23 1   
    20     9    24 1   
    21    10    25 1   
    22    10    26 1   
    23    12    13 1   
    24    12    17 1   
    25    13    14 1   
    26    13    27 1   
    27    13    28 1   
    28    14    15 1   
    29    14    29 1   
    30    14    30 1   
    31    15    16 1   
    32    16    17 1   
    33    16    31 1   
    34    16    32 1   
    35    17    33 1   
    36    17    34 1   
@<TRIPOS>SUBSTRUCTURE
     1 CJF         1 TEMP              0 ****  ****    0 ROOT
