@<TRIPOS>MOLECULE
CJF
   34    36     1     0     0
SMALL
bcc


@<TRIPOS>ATOM
      1 N01         26.7930    10.4190   -13.9900 nv         1 CJF      -0.944500
      2 C02         27.4000     9.5630   -14.8500 ca         1 CJF       0.960900
      3 N03         28.7130     9.4080   -14.7030 nb         1 CJF      -0.881000
      4 C04         29.3320     8.6030   -15.5720 ca         1 CJF       0.773200
      5 C05         28.6210     7.9430   -16.5820 ca         1 CJF      -0.553600
      6 C06         27.2480     8.1900   -16.6390 ca         1 CJF       0.765200
      7 N07         26.4570     7.6310   -17.5830 nu         1 CJF      -0.857900
      8 C08         26.9050     6.6610   -18.5200 cx         1 CJF       0.165500
      9 C09         27.7070     7.1170   -19.7030 cx         1 CJF      -0.133400
     10 C10         26.2860     6.6820   -19.8800 cx         1 CJF      -0.133400
     11 N11         26.6260     8.9950   -15.7690 nb         1 CJF      -0.877000
     12 N12         30.6810     8.4790   -15.4280 nh         1 CJF      -0.779300
     13 C13         31.4530     7.5030   -16.1700 c6         1 CJF       0.183800
     14 C14         32.8650     8.0160   -16.3950 c6         1 CJF       0.117400
     15 O15         33.4950     8.3740   -15.1870 os         1 CJF      -0.399600
     16 C16         32.7580     9.3810   -14.5300 c6         1 CJF       0.117400
     17 C17         31.3440     8.9330   -14.2160 c6         1 CJF       0.183800
     18 H1          25.7930    10.3680   -13.9090 hn         1 CJF       0.428300
     19 H2          27.2910    10.6690   -13.1530 hn         1 CJF       0.428300
     20 H3          29.0820     7.2690   -17.2840 ha         1 CJF       0.148000
     21 H4          25.4650     7.7420   -17.4490 hn         1 CJF       0.448800
     22 H5          27.1560     5.6840   -18.1120 h1         1 CJF       0.077700
     23 H6          28.4960     6.4670   -20.0590 hc         1 CJF       0.079200
     24 H7          27.9240     8.1750   -19.7760 hc         1 CJF       0.079200
     25 H8          25.5450     7.4470   -20.0780 hc         1 CJF       0.079200
     26 H9          26.0890     5.7310   -20.3560 hc         1 CJF       0.079200
     27 H10         31.0120     7.3190   -17.1470 h1         1 CJF       0.057950
     28 H11         31.4820     6.5440   -15.6350 h1         1 CJF       0.057950
     29 H12         33.4650     7.2370   -16.8650 h1         1 CJF       0.052950
     30 H13         32.8280     8.8770   -17.0770 h1         1 CJF       0.052950
     31 H14         33.2800     9.6210   -13.6030 h1         1 CJF       0.052950
     32 H15         32.7240    10.2920   -15.1450 h1         1 CJF       0.052950
     33 H16         30.7900     9.7620   -13.7860 h1         1 CJF       0.057950
     34 H17         31.3650     8.1260   -13.4720 h1         1 CJF       0.057950
@<TRIPOS>BOND
     1     1     2 1   
     2     1    18 1   
     3     1    19 1   
     4     2     3 ar  
     5     2    11 ar  
     6     3     4 ar  
     7     4     5 ar  
     8     4    12 1   
     9     5     6 ar  
    10     5    20 1   
    11     6     7 1   
    12     6    11 ar  
    13     7     8 1   
    14     7    21 1   
    15     8     9 1   
    16     8    10 1   
    17     8    22 1   
    18     9    10 1   
    19     9    23 1   
    20     9    24 1   
    21    10    25 1   
    22    10    26 1   
    23    12    13 1   
    24    12    17 1   
    25    13    14 1   
    26    13    27 1   
    27    13    28 1   
    28    14    15 1   
    29    14    29 1   
    30    14    30 1   
    31    15    16 1   
    32    16    17 1   
    33    16    31 1   
    34    16    32 1   
    35    17    33 1   
    36    17    34 1   
@<TRIPOS>SUBSTRUCTURE
     1 CJF         1 TEMP              0 ****  ****    0 ROOT
