@<TRIPOS>MOLECULE
CJG
   51    54     1     0     0
SMALL
abcg2


@<TRIPOS>ATOM
      1 C4          -1.3950    -1.8470     0.9130 ca         1 CJG       0.103000
      2 C5          -0.3350    -1.1810     0.3130 ca         1 CJG      -0.027300
      3 C6          -0.5860     0.0280    -0.3500 ca         1 CJG      -0.132600
      4 C7           0.5850     0.8640    -0.8010 c          1 CJG       0.594600
      5 C10          1.0650    -1.7140     0.3080 c6         1 CJG      -0.059100
      6 C13          5.2440    -0.0320    -0.8370 cc         1 CJG       0.036800
      7 C15          6.0950    -0.0240     1.4180 cd         1 CJG       0.084400
      8 C17          3.8630     0.8610     0.9740 c          1 CJG       0.559200
      9 C20          5.4930    -0.3830    -2.2760 c3         1 CJG      -0.063900
     10 C24         -4.9610     1.3990     0.5790 cc         1 CJG       0.306300
     11 C1          -1.9020     0.4800    -0.4790 ca         1 CJG       0.180000
     12 C2          -2.9630    -0.2060     0.1140 ca         1 CJG      -0.006000
     13 C3          -2.6860    -1.3630     0.8310 ca         1 CJG      -0.070000
     14 N8           1.7240     0.1840    -1.0510 n          1 CJG      -0.406800
     15 C9           1.7590    -1.2600    -0.9590 c6         1 CJG       0.108000
     16 C11          2.9510     0.9000    -1.3560 c3         1 CJG       0.163200
     17 C12          4.0720     0.5450    -0.4220 cd         1 CJG      -0.260400
     18 C14          6.2710    -0.3170     0.1040 cc         1 CJG      -0.306000
     19 N16          4.9240     0.5370     1.8060 ns         1 CJG      -0.373100
     20 C19          7.1120    -0.2710     2.4800 c3         1 CJG      -0.072900
     21 O21          0.4890     2.0710    -0.8850 o          1 CJG      -0.526000
     22 CL22        -1.1220    -3.3110     1.7950 cl         1 CJG      -0.196000
     23 C23         -4.3530     0.2440     0.0040 cc         1 CJG      -0.190000
     24 N25         -6.2310     1.4340     0.3080 nd         1 CJG      -0.367300
     25 O26         -6.4960     0.3280    -0.4460 os         1 CJG      -0.071700
     26 C27         -5.3820    -0.3810    -0.6210 cd         1 CJG       0.210300
     27 CL30        -2.3000     1.8430    -1.4540 cl         1 CJG      -0.150000
     28 H1           1.6090    -1.3590     1.1880 hc         1 CJG       0.074700
     29 H2           1.0630    -2.8030     0.3510 hc         1 CJG       0.074700
     30 H3           6.4760    -0.8290    -2.4080 hc         1 CJG       0.050700
     31 H4           4.7570    -1.0980    -2.6460 hc         1 CJG       0.050700
     32 H5           5.4410     0.4940    -2.9200 hc         1 CJG       0.050700
     33 H6          -6.1060    -2.3650    -0.9360 hc         1 CJG       0.064367
     34 H7          -5.8620    -1.4350    -2.4120 hc         1 CJG       0.064367
     35 H8          -4.4710    -2.0630    -1.5260 hc         1 CJG       0.064367
     36 H9          -3.4950    -1.8880     1.3210 ha         1 CJG       0.136000
     37 H10          2.7970    -1.5880    -0.9460 h1         1 CJG       0.050200
     38 H11          1.2840    -1.7200    -1.8320 h1         1 CJG       0.050200
     39 H12          3.2380     0.6950    -2.3890 h1         1 CJG       0.069200
     40 H13          2.7300     1.9650    -1.2930 h1         1 CJG       0.069200
     41 H14          7.1980    -0.7640    -0.2230 ha         1 CJG       0.197000
     42 H15          4.7860     0.7550     2.7830 hn         1 CJG       0.324500
     43 H16          7.4300     0.6650     2.9410 hc         1 CJG       0.060033
     44 H17          6.7120    -0.9090     3.2700 hc         1 CJG       0.060033
     45 H18          7.9910    -0.7590     2.0660 hc         1 CJG       0.060033
     46 H19         -3.6710     2.0020     2.1630 hc         1 CJG       0.061700
     47 H20         -3.6920     3.1000     0.7930 hc         1 CJG       0.061700
     48 H21         -5.0620     3.0650     1.9070 hc         1 CJG       0.061700
     49 O18          2.8570     1.3710     1.4440 o          1 CJG      -0.544000
     50 C29         -4.3160     2.4510     1.4080 c3         1 CJG      -0.138400
     51 C28         -5.4620    -1.6270    -1.4160 c3         1 CJG      -0.139400
@<TRIPOS>BOND
     1     1     2 ar  
     2     1    13 ar  
     3     1    22 1   
     4     2     3 ar  
     5     2     5 1   
     6     3     4 1   
     7     3    11 ar  
     8     4    14 1   
     9     4    21 2   
    10     5    15 1   
    11     5    28 1   
    12     5    29 1   
    13     6     9 1   
    14     6    17 2   
    15     6    18 1   
    16     7    18 2   
    17     7    19 1   
    18     7    20 1   
    19     8    17 1   
    20     8    19 1   
    21     8    49 2   
    22     9    30 1   
    23     9    31 1   
    24     9    32 1   
    25    10    23 1   
    26    10    24 2   
    27    10    50 1   
    28    11    12 ar  
    29    11    27 1   
    30    12    13 ar  
    31    12    23 1   
    32    13    36 1   
    33    14    15 1   
    34    14    16 1   
    35    15    37 1   
    36    15    38 1   
    37    16    17 1   
    38    16    39 1   
    39    16    40 1   
    40    18    41 1   
    41    19    42 1   
    42    20    43 1   
    43    20    44 1   
    44    20    45 1   
    45    23    26 2   
    46    24    25 1   
    47    25    26 1   
    48    26    51 1   
    49    33    51 1   
    50    34    51 1   
    51    35    51 1   
    52    46    50 1   
    53    47    50 1   
    54    48    50 1   
@<TRIPOS>SUBSTRUCTURE
     1 CJG         1 TEMP              0 ****  ****    0 ROOT
