@<TRIPOS>MOLECULE
CJG
   51    54     1     0     0
SMALL
No Charge or Current Charge


@<TRIPOS>ATOM
      1 C4          -1.5180    -1.9540     0.7040 ca         1 CJG       0.103000
      2 C5          -0.4400    -1.1740     0.2340 ca         1 CJG      -0.027300
      3 C6          -0.6790     0.1210    -0.3060 ca         1 CJG      -0.132600
      4 C7           0.5130     0.9760    -0.7320 c          1 CJG       0.594600
      5 C10          0.9930    -1.7160     0.2920 c6         1 CJG      -0.059100
      6 C13          5.2660    -0.0800    -0.8100 cc         1 CJG       0.036800
      7 C15          6.3110    -0.0950     1.4080 cd         1 CJG       0.084400
      8 C17          4.1670     1.0390     1.1500 c          1 CJG       0.559200
      9 C20          5.3710    -0.5050    -2.2540 c3         1 CJG      -0.063900
     10 C24         -5.1330     1.4770     0.3570 cc         1 CJG       0.306300
     11 C1          -2.0240     0.5870    -0.4060 ca         1 CJG       0.180000
     12 C2          -3.0990    -0.2010     0.0870 ca         1 CJG      -0.006000
     13 C3          -2.8250    -1.4670     0.6280 ca         1 CJG      -0.070000
     14 N8           1.7640     0.3270    -0.8130 n          1 CJG      -0.406800
     15 C9           1.8250    -1.1430    -0.8570 c6         1 CJG       0.108000
     16 C11          3.0020     1.0960    -1.0930 c3         1 CJG       0.163200
     17 C12          4.2030     0.6440    -0.2860 cd         1 CJG      -0.260400
     18 C14          6.3340    -0.4460     0.0810 cc         1 CJG      -0.306000
     19 N16          5.2450     0.6240     1.8850 ns         1 CJG      -0.373100
     20 C19          7.3700    -0.4260     2.4240 c3         1 CJG      -0.072900
     21 O21          0.4350     2.1830    -0.9120 o          1 CJG      -0.526000
     22 Cl22        -1.2740    -3.5460     1.4260 cl         1 CJG      -0.196000
     23 C23         -4.5030     0.2440     0.0620 cc         1 CJG      -0.190000
     24 N25         -6.4170     1.5030     0.0390 nd         1 CJG      -0.367300
     25 O26         -6.6540     0.2110    -0.5450 os         1 CJG      -0.071700
     26 C27         -5.4820    -0.4990    -0.5280 cd         1 CJG       0.210300
     27 Cl30        -2.4210     2.0520    -1.3230 cl         1 CJG      -0.150000
     28 H1           1.4530    -1.4530     1.2540 hc         1 CJG       0.074700
     29 H2           1.0190    -2.8110     0.2150 hc         1 CJG       0.074700
     30 H3           6.2310    -1.1630    -2.4270 hc         1 CJG       0.050700
     31 H4           4.4740    -1.0510    -2.5700 hc         1 CJG       0.050700
     32 H5           5.4860     0.3670    -2.9080 hc         1 CJG       0.050700
     33 H6          -5.5590    -2.6520    -0.4610 hc         1 CJG       0.064367
     34 H7          -6.2630    -1.9460    -1.9240 hc         1 CJG       0.064367
     35 H8          -4.5050    -2.0010    -1.7330 hc         1 CJG       0.064367
     36 H9          -3.6350    -2.0760     1.0220 ha         1 CJG       0.136000
     37 H10          2.8580    -1.5040    -0.7750 h1         1 CJG       0.050200
     38 H11          1.4220    -1.4920    -1.8190 h1         1 CJG       0.050200
     39 H12          3.2160     1.0220    -2.1660 h1         1 CJG       0.069200
     40 H13          2.8420     2.1620    -0.8860 h1         1 CJG       0.069200
     41 H14          7.1750    -1.0130    -0.3110 ha         1 CJG       0.197000
     42 H15          5.2160     0.8930     2.8600 hn         1 CJG       0.324500
     43 H16          7.8060     0.4850     2.8520 hc         1 CJG       0.060033
     44 H17          6.9560    -1.0220     3.2460 hc         1 CJG       0.060033
     45 H18          8.1870    -1.0040     1.9750 hc         1 CJG       0.060033
     46 H19         -3.4890     2.3270     1.4740 hc         1 CJG       0.061700
     47 H20         -4.3260     3.4730     0.4030 hc         1 CJG       0.061700
     48 H21         -5.0810     2.9540     1.9170 hc         1 CJG       0.061700
     49 O18          3.2700     1.6840     1.6720 o          1 CJG      -0.544000
     50 C29         -4.4670     2.6190     1.0740 c3         1 CJG      -0.138400
     51 C28         -5.4490    -1.8480    -1.1970 c3         1 CJG      -0.139400
@<TRIPOS>BOND
     1     1     2 ar  
     2     1    13 ar  
     3     1    22 1   
     4     2     3 ar  
     5     2     5 1   
     6     3     4 1   
     7     3    11 ar  
     8     4    14 1   
     9     4    21 2   
    10     5    15 1   
    11     5    28 1   
    12     5    29 1   
    13     6     9 1   
    14     6    17 2   
    15     6    18 1   
    16     7    18 2   
    17     7    19 1   
    18     7    20 1   
    19     8    17 1   
    20     8    19 1   
    21     8    49 2   
    22     9    30 1   
    23     9    31 1   
    24     9    32 1   
    25    10    23 1   
    26    10    24 2   
    27    10    50 1   
    28    11    12 ar  
    29    11    27 1   
    30    12    13 ar  
    31    12    23 1   
    32    13    36 1   
    33    14    15 1   
    34    14    16 1   
    35    15    37 1   
    36    15    38 1   
    37    16    17 1   
    38    16    39 1   
    39    16    40 1   
    40    18    41 1   
    41    19    42 1   
    42    20    43 1   
    43    20    44 1   
    44    20    45 1   
    45    23    26 2   
    46    24    25 1   
    47    25    26 1   
    48    26    51 1   
    49    33    51 1   
    50    34    51 1   
    51    35    51 1   
    52    46    50 1   
    53    47    50 1   
    54    48    50 1   
@<TRIPOS>SUBSTRUCTURE
     1 CJG         1 TEMP              0 ****  ****    0 ROOT
