@<TRIPOS>MOLECULE
CJH
   42    43     1     0     0
SMALL
No Charge or Current Charge


@<TRIPOS>ATOM
      1 CAA          7.8460     2.5590     0.7450 c3         1 CJH      -0.095100
      2 CAO          7.3450     1.1440     0.4150 c3         1 CJH       0.166600
      3 OAQ          5.9090     1.1910     0.3710 os         1 CJH      -0.351100
      4 CAV          5.1450     0.0750     0.0960 ca         1 CJH       0.147100
      5 CAN          3.7490     0.2240     0.0780 ca         1 CJH      -0.141000
      6 CAH          5.7140    -1.1900    -0.1590 ca         1 CJH      -0.201000
      7 CAG          4.8830    -2.2890    -0.4290 ca         1 CJH      -0.074000
      8 CAK          3.4870    -2.1300    -0.4440 ca         1 CJH      -0.142000
      9 CAX          2.8900    -0.8710    -0.1910 cp         1 CJH       0.011000
     10 CAW          1.4010    -0.7010    -0.2080 cp         1 CJH      -0.068000
     11 CAM          0.5400    -1.7310     0.2420 ca         1 CJH      -0.069500
     12 CAJ         -0.8560    -1.5700     0.2260 ca         1 CJH      -0.154500
     13 CAL          0.8030     0.4940    -0.6790 ca         1 CJH      -0.069500
     14 CAI         -0.5930     0.6550    -0.6970 ca         1 CJH      -0.154500
     15 CAU         -1.4380    -0.3760    -0.2360 ca         1 CJH      -0.010000
     16 NAP         -2.8570    -0.2880    -0.2290 ns         1 CJH      -0.145000
     17 CAS         -3.7340     0.7730    -0.4440 c          1 CJH       0.648300
     18 OAD         -3.3520     1.9260    -0.6140 o          1 CJH      -0.568100
     19 CAT         -5.1890     0.4120    -0.3510 ce         1 CJH      -0.200900
     20 CAF         -5.5510    -0.8910    -0.8150 cg         1 CJH       0.294700
     21 NAC         -5.8100    -1.9710    -1.1720 n1         1 CJH      -0.472000
     22 CAR         -6.1170     1.2090     0.2380 c2         1 CJH       0.225900
     23 CAB         -7.5900     0.8570     0.3950 c3         1 CJH      -0.126900
     24 OAE         -5.8070     2.4040     0.7710 oh         1 CJH      -0.470100
     25 HAA          7.5230     3.2720    -0.0230 hc         1 CJH       0.046700
     26 HAAA         7.4580     2.8890     1.7160 hc         1 CJH       0.046700
     27 HAAB         8.9410     2.5730     0.7890 hc         1 CJH       0.046700
     28 HAO          7.7540     0.8290    -0.5540 h1         1 CJH       0.032700
     29 HAOA         7.6890     0.4460     1.1880 h1         1 CJH       0.032700
     30 HAN          3.3280     1.2030     0.2900 ha         1 CJH       0.129000
     31 HAH          6.7900    -1.3390    -0.1530 ha         1 CJH       0.115000
     32 HAG          5.3200    -3.2650    -0.6300 ha         1 CJH       0.109000
     33 HAK          2.8640    -2.9920    -0.6690 ha         1 CJH       0.116000
     34 HAM          0.9570    -2.6610     0.6220 ha         1 CJH       0.116500
     35 HAJ         -1.4880    -2.3810     0.5820 ha         1 CJH       0.130000
     36 HAL          1.4280     1.3010    -1.0530 ha         1 CJH       0.116500
     37 HAI         -0.9960     1.5860    -1.0850 ha         1 CJH       0.130000
     38 HNAP        -3.3170    -1.1690    -0.0400 hn         1 CJH       0.157000
     39 HAB         -8.1860     1.6790     0.8100 hc         1 CJH       0.072700
     40 HABA        -8.0360     0.5970    -0.5730 hc         1 CJH       0.072700
     41 HABB        -7.7150    -0.0050     1.0610 hc         1 CJH       0.072700
     42 HOAE        -6.6260     2.7930     1.1410 ho         1 CJH       0.478000
@<TRIPOS>BOND
     1     1     2 1   
     2     1    25 1   
     3     1    26 1   
     4     1    27 1   
     5     2     3 1   
     6     2    28 1   
     7     2    29 1   
     8     3     4 1   
     9     4     5 ar  
    10     4     6 ar  
    11     5     9 ar  
    12     5    30 1   
    13     6     7 ar  
    14     6    31 1   
    15     7     8 ar  
    16     7    32 1   
    17     8     9 ar  
    18     8    33 1   
    19     9    10 1   
    20    10    11 ar  
    21    10    13 ar  
    22    11    12 ar  
    23    11    34 1   
    24    12    15 ar  
    25    12    35 1   
    26    13    14 ar  
    27    13    36 1   
    28    14    15 ar  
    29    14    37 1   
    30    15    16 1   
    31    16    17 1   
    32    16    38 1   
    33    17    18 2   
    34    17    19 1   
    35    19    20 1   
    36    19    22 2   
    37    20    21 3   
    38    22    23 1   
    39    22    24 1   
    40    23    39 1   
    41    23    40 1   
    42    23    41 1   
    43    24    42 1   
@<TRIPOS>SUBSTRUCTURE
     1 CJH         1 TEMP              0 ****  ****    0 ROOT
