@<TRIPOS>MOLECULE
CJH
   42    43     1     0     0
SMALL
abcg2


@<TRIPOS>ATOM
      1 CAA          7.7310     2.4630     0.8970 c3         1 CJH      -0.095100
      2 CAO          7.2090     1.1330     0.4070 c3         1 CJH       0.166600
      3 OAQ          5.7890     1.1900     0.4090 os         1 CJH      -0.351100
      4 CAV          5.0910     0.1020     0.0330 ca         1 CJH       0.147100
      5 CAN          3.7020     0.2210     0.0850 ca         1 CJH      -0.141000
      6 CAH          5.6660    -1.0970    -0.3810 ca         1 CJH      -0.201000
      7 CAG          4.8370    -2.1550    -0.7370 ca         1 CJH      -0.074000
      8 CAK          3.4600    -2.0410    -0.6860 ca         1 CJH      -0.142000
      9 CAX          2.8770    -0.8390    -0.2720 cp         1 CJH       0.011000
     10 CAW          1.4090    -0.6960    -0.2100 cp         1 CJH      -0.068000
     11 CAM          0.5980    -1.7540     0.2020 ca         1 CJH      -0.069500
     12 CAJ         -0.7740    -1.6180     0.2680 ca         1 CJH      -0.154500
     13 CAL          0.7780     0.4960    -0.5570 ca         1 CJH      -0.069500
     14 CAI         -0.5990     0.6490    -0.5000 ca         1 CJH      -0.154500
     15 CAU         -1.3980    -0.4160    -0.0790 ca         1 CJH      -0.010000
     16 NAP         -2.7900    -0.3870     0.0270 ns         1 CJH      -0.145000
     17 CAS         -3.6440     0.6460    -0.2180 c          1 CJH       0.648300
     18 OAD         -3.2760     1.7450    -0.5870 o          1 CJH      -0.568100
     19 CAT         -5.0780     0.3220     0.0050 ce         1 CJH      -0.200900
     20 CAF         -5.4330    -1.0180     0.2970 cg         1 CJH       0.294700
     21 NAC         -5.6680    -2.1260     0.5300 n1         1 CJH      -0.472000
     22 CAR         -6.0840     1.2500    -0.0560 c2         1 CJH       0.225900
     23 CAB         -7.5190     0.9260     0.1780 c3         1 CJH      -0.126900
     24 OAE         -5.8040     2.5030    -0.3240 oh         1 CJH      -0.470100
     25 HAA          7.4060     3.2810     0.2540 hc         1 CJH       0.046700
     26 HAAA         7.4030     2.6690     1.9160 hc         1 CJH       0.046700
     27 HAAB         8.8210     2.4470     0.8930 hc         1 CJH       0.046700
     28 HAO          7.5780     0.9260    -0.6030 h1         1 CJH       0.032700
     29 HAOA         7.5580     0.3240     1.0580 h1         1 CJH       0.032700
     30 HAN          3.2740     1.1540     0.4330 ha         1 CJH       0.129000
     31 HAH          6.7380    -1.2260    -0.4340 ha         1 CJH       0.115000
     32 HAG          5.2850    -3.0840    -1.0690 ha         1 CJH       0.109000
     33 HAK          2.8390    -2.8730    -0.9900 ha         1 CJH       0.116000
     34 HAM          1.0420    -2.6960     0.4980 ha         1 CJH       0.116500
     35 HAJ         -1.3710    -2.4590     0.6040 ha         1 CJH       0.130000
     36 HAL          1.3670     1.3360    -0.9030 ha         1 CJH       0.116500
     37 HAI         -1.0320     1.5900    -0.7930 ha         1 CJH       0.130000
     38 HNAP        -3.1880    -1.2530     0.3560 hn         1 CJH       0.157000
     39 HAB         -7.8910     1.5120     1.0200 hc         1 CJH       0.072700
     40 HABA        -8.1040     1.2050    -0.7010 hc         1 CJH       0.072700
     41 HABB        -7.6980    -0.1230     0.3880 hc         1 CJH       0.072700
     42 HOAE        -6.6070     3.0420    -0.3300 ho         1 CJH       0.478000
@<TRIPOS>BOND
     1     1     2 1   
     2     1    25 1   
     3     1    26 1   
     4     1    27 1   
     5     2     3 1   
     6     2    28 1   
     7     2    29 1   
     8     3     4 1   
     9     4     5 ar  
    10     4     6 ar  
    11     5     9 ar  
    12     5    30 1   
    13     6     7 ar  
    14     6    31 1   
    15     7     8 ar  
    16     7    32 1   
    17     8     9 ar  
    18     8    33 1   
    19     9    10 1   
    20    10    11 ar  
    21    10    13 ar  
    22    11    12 ar  
    23    11    34 1   
    24    12    15 ar  
    25    12    35 1   
    26    13    14 ar  
    27    13    36 1   
    28    14    15 ar  
    29    14    37 1   
    30    15    16 1   
    31    16    17 1   
    32    16    38 1   
    33    17    18 2   
    34    17    19 1   
    35    19    20 1   
    36    19    22 2   
    37    20    21 3   
    38    22    23 1   
    39    22    24 1   
    40    23    39 1   
    41    23    40 1   
    42    23    41 1   
    43    24    42 1   
@<TRIPOS>SUBSTRUCTURE
     1 CJH         1 TEMP              0 ****  ****    0 ROOT
