@<TRIPOS>MOLECULE
CJJ
   38    41     1     0     0
SMALL
abcg2


@<TRIPOS>ATOM
      1 C5           0.8330     2.1740    -0.0030 cc         1 CJJ      -0.263500
      2 C6          -0.6270     2.1890    -0.0180 ca         1 CJJ       0.252500
      3 C8          -2.5520     3.3460    -0.0430 ca         1 CJJ       0.154900
      4 C10         -2.5470     0.9600    -0.0200 ca         1 CJJ       0.422900
      5 N12         -3.1850    -0.2220    -0.0140 nu         1 CJJ      -0.873800
      6 C13         -2.6320    -1.4970    -0.0040 cc         1 CJJ       0.495900
      7 C15         -1.3880    -3.3090    -0.0870 cd         1 CJJ      -0.088300
      8 C20         -0.3060    -5.5280     0.7040 cx         1 CJJ      -0.122400
      9 C21         -0.5780    -5.6780    -0.7540 cx         1 CJJ      -0.122400
     10 C1           1.6930     3.2380    -0.0410 cd         1 CJJ      -0.108000
     11 C2           3.0480     2.8390    -0.0280 cd         1 CJJ      -0.011000
     12 C3           3.1700     1.4810     0.0250 cc         1 CJJ      -0.461500
     13 S4           1.6610     0.6710     0.0540 ss         1 CJJ       0.433000
     14 N7          -1.2200     3.3700    -0.0350 nb         1 CJJ      -0.193000
     15 C9          -3.2680     2.1760    -0.0350 ca         1 CJJ      -0.076000
     16 N11         -1.2200     1.0030    -0.0120 nb         1 CJJ      -0.262000
     17 C14         -1.3030    -1.9330    -0.1650 cc         1 CJJ      -0.212000
     18 N16         -2.6870    -3.5920     0.1020 na         1 CJJ       0.000800
     19 N18         -3.4630    -2.5070     0.1590 nd         1 CJJ      -0.571800
     20 C19         -0.3190    -4.3110    -0.1830 cx         1 CJJ      -0.073400
     21 CL22        -4.9890     2.1920    -0.0450 cl         1 CJJ      -0.170000
     22 S23          4.6670     0.5770     0.0430 sy         1 CJJ       1.179600
     23 O24          4.4710    -0.6510    -0.7110 o          1 CJJ      -0.546000
     24 O25          5.7150     1.5010    -0.3540 o          1 CJJ      -0.546000
     25 N26          4.7640     0.1260     1.6230 n8         1 CJJ      -1.014100
     26 H1          -3.0670     4.3000    -0.0570 h4         1 CJJ       0.038100
     27 H2          -4.1940    -0.2060     0.0160 hn         1 CJJ       0.527000
     28 H4           0.6540    -5.8500     1.0860 hc         1 CJJ       0.075950
     29 H5           0.1920    -6.1060    -1.3830 hc         1 CJJ       0.075950
     30 H6          -1.5870    -5.9160    -1.0660 hc         1 CJJ       0.075950
     31 H7           1.3640     4.2650    -0.0840 ha         1 CJJ       0.155000
     32 H8           3.8830     3.5230    -0.0560 ha         1 CJJ       0.152000
     33 H9          -0.4180    -1.3470    -0.3180 ha         1 CJJ       0.166000
     34 H10         -3.1130    -4.4990     0.2100 hn         1 CJJ       0.374000
     35 H11          0.6460    -3.8740    -0.4060 hc         1 CJJ       0.105700
     36 H12          5.3510    -0.6940     1.7460 hn         1 CJJ       0.476500
     37 H13          5.0670     0.8780     2.2340 hn         1 CJJ       0.476500
     38 H3          -1.1270    -5.6600     1.3980 hc         1 CJJ       0.075950
@<TRIPOS>BOND
     1     1     2 1   
     2     1    10 2   
     3     1    13 1   
     4     2    14 ar  
     5     2    16 ar  
     6     3    14 ar  
     7     3    15 ar  
     8     3    26 1   
     9     4     5 1   
    10     4    15 ar  
    11     4    16 ar  
    12     5     6 1   
    13     5    27 1   
    14     6    17 1   
    15     6    19 2   
    16     7    17 2   
    17     7    18 1   
    18     7    20 1   
    19     8     9 1   
    20     8    20 1   
    21     8    28 1   
    22     8    38 1   
    23     9    20 1   
    24     9    29 1   
    25     9    30 1   
    26    10    11 1   
    27    10    31 1   
    28    11    12 2   
    29    11    32 1   
    30    12    13 1   
    31    12    22 1   
    32    15    21 1   
    33    17    33 1   
    34    18    19 1   
    35    18    34 1   
    36    20    35 1   
    37    22    23 2   
    38    22    24 2   
    39    22    25 1   
    40    25    36 1   
    41    25    37 1   
@<TRIPOS>SUBSTRUCTURE
     1 CJJ         1 TEMP              0 ****  ****    0 ROOT
