@<TRIPOS>MOLECULE
CJJ
   38    41     1     0     0
SMALL
No Charge or Current Charge


@<TRIPOS>ATOM
      1 C5           1.0060     2.0040     0.0290 cc         1 CJJ      -0.263500
      2 C6          -0.4570     2.0690    -0.0010 ca         1 CJJ       0.252500
      3 C8          -2.3930     3.3130    -0.1340 ca         1 CJJ       0.154900
      4 C10         -2.4570     0.9210     0.0560 ca         1 CJJ       0.422900
      5 N12         -3.1490    -0.2850     0.1580 nu         1 CJJ      -0.873800
      6 C13         -2.8210    -1.6030     0.1390 cc         1 CJJ       0.495900
      7 C15         -1.6820    -3.4830    -0.0890 cd         1 CJJ      -0.088300
      8 C20         -0.5290    -5.7510     0.4750 cx         1 CJJ      -0.122400
      9 C21         -0.9130    -5.8070    -0.9850 cx         1 CJJ      -0.122400
     10 C1           1.8080     3.1200    -0.0730 cd         1 CJJ      -0.108000
     11 C2           3.1920     2.8030    -0.0180 cd         1 CJJ      -0.011000
     12 C3           3.4290     1.4550     0.1330 cc         1 CJJ      -0.461500
     13 S4           1.9470     0.5220     0.1860 ss         1 CJJ       0.433000
     14 N7          -1.0470     3.2810    -0.1120 nb         1 CJJ      -0.193000
     15 C9          -3.1560     2.1390    -0.0490 ca         1 CJJ      -0.076000
     16 N11         -1.1130     0.8920     0.0850 nb         1 CJJ      -0.262000
     17 C14         -1.5640    -2.1290    -0.1700 cc         1 CJJ      -0.212000
     18 N16         -3.0270    -3.6880     0.2640 na         1 CJJ       0.000800
     19 N18         -3.7400    -2.4900     0.3980 nd         1 CJJ      -0.571800
     20 C19         -0.6050    -4.4770    -0.3350 cx         1 CJJ      -0.073400
     21 Cl22        -4.9230     2.2130    -0.0740 cl         1 CJJ      -0.170000
     22 S23          4.9870     0.6520     0.2230 sy         1 CJJ       1.179600
     23 O24          4.8350    -0.7850     0.0000 o          1 CJJ      -0.546000
     24 O25          5.9950     1.4760    -0.4370 o          1 CJJ      -0.546000
     25 N26          5.2970     0.8370     1.8080 n8         1 CJJ      -1.014100
     26 H1          -2.8620     4.2920    -0.2200 h4         1 CJJ       0.038100
     27 H2          -4.1520    -0.1670     0.2700 hn         1 CJJ       0.527000
     28 H4           0.4580    -6.1140     0.7540 hc         1 CJJ       0.075950
     29 H5          -0.1840    -6.2070    -1.6860 hc         1 CJJ       0.075950
     30 H6          -1.9480    -6.0320    -1.2300 hc         1 CJJ       0.075950
     31 H7           1.4430     4.1370    -0.1860 ha         1 CJJ       0.155000
     32 H8           3.9770     3.5530    -0.0910 ha         1 CJJ       0.152000
     33 H9          -0.6780    -1.5690    -0.4330 ha         1 CJJ       0.166000
     34 H10         -3.4740    -4.5930     0.4090 hn         1 CJJ       0.374000
     35 H11          0.3460    -4.0170    -0.6020 hc         1 CJJ       0.105700
     36 H12          6.2000     1.3030     1.7640 hn         1 CJJ       0.476500
     37 H13          4.6480     1.5830     2.0440 hn         1 CJJ       0.476500
     38 H3          -1.3060    -5.9390     1.2120 hc         1 CJJ       0.075950
@<TRIPOS>BOND
     1     1     2 1   
     2     1    10 2   
     3     1    13 1   
     4     2    14 ar  
     5     2    16 ar  
     6     3    14 ar  
     7     3    15 ar  
     8     3    26 1   
     9     4     5 1   
    10     4    15 ar  
    11     4    16 ar  
    12     5     6 1   
    13     5    27 1   
    14     6    17 1   
    15     6    19 2   
    16     7    17 2   
    17     7    18 1   
    18     7    20 1   
    19     8     9 1   
    20     8    20 1   
    21     8    28 1   
    22     8    38 1   
    23     9    20 1   
    24     9    29 1   
    25     9    30 1   
    26    10    11 1   
    27    10    31 1   
    28    11    12 2   
    29    11    32 1   
    30    12    13 1   
    31    12    22 1   
    32    15    21 1   
    33    17    33 1   
    34    18    19 1   
    35    18    34 1   
    36    20    35 1   
    37    22    23 2   
    38    22    24 2   
    39    22    25 1   
    40    25    36 1   
    41    25    37 1   
@<TRIPOS>SUBSTRUCTURE
     1 CJJ         1 TEMP              0 ****  ****    0 ROOT
