@<TRIPOS>MOLECULE
CJK
   40    41     1     0     0
SMALL
No Charge or Current Charge


@<TRIPOS>ATOM
      1 C1           6.9180     1.1400     1.9980 c3         1 CJK      -0.048800
      2 C3           4.9170     1.4650     0.4670 ca         1 CJK      -0.114000
      3 C5           4.1970    -0.2770    -1.0840 ca         1 CJK      -0.131300
      4 C6           5.2460    -1.0990    -0.6290 ca         1 CJK      -0.092000
      5 C7           6.1250    -0.6400     0.3680 ca         1 CJK      -0.114000
      6 C8           3.2420    -0.7720    -2.1600 c3         1 CJK       0.162300
      7 C10          0.8560    -0.7510    -1.3760 c          1 CJK       0.644100
      8 N12         -0.0920    -1.5640    -0.7720 ns         1 CJK      -0.195000
      9 C13         -1.4130    -1.2750    -0.3070 ca         1 CJK      -0.171000
     10 C14         -1.7680     0.0310     0.1020 ca         1 CJK       0.040000
     11 C15         -3.0600     0.2980     0.5990 ca         1 CJK      -0.319500
     12 C16         -4.0060    -0.7390     0.6970 ca         1 CJK       0.027000
     13 C17         -3.6560    -2.0360     0.2960 ca         1 CJK      -0.174000
     14 C18         -2.3750    -2.3050    -0.2040 ca         1 CJK       0.223100
     15 O21         -4.7010     1.9300     1.9300 o          1 CJK      -0.549000
     16 C2           5.9650     0.6430     0.9220 ca         1 CJK      -0.065300
     17 C4           4.0370     1.0080    -0.5300 ca         1 CJK      -0.092000
     18 N9           2.0550    -1.3910    -1.5690 ns         1 CJK      -0.517900
     19 O11          0.6590     0.4050    -1.7230 o          1 CJK      -0.615100
     20 O19         -2.0890    -3.5760    -0.6090 oh         1 CJK      -0.514100
     21 S20         -3.4860     1.9570     1.1200 sy         1 CJK       1.133600
     22 O22         -2.2870     2.7000     1.5050 o          1 CJK      -0.549000
     23 N23         -3.9710     2.6260    -0.2890 n8         1 CJK      -0.996100
     24 H1           7.7780     1.6530     1.5510 hc         1 CJK       0.044033
     25 H2           6.4230     1.8450     2.6770 hc         1 CJK       0.044033
     26 H3           7.3010     0.3120     2.6060 hc         1 CJK       0.044033
     27 H4           4.7820     2.4600     0.8850 ha         1 CJK       0.113500
     28 H5           5.3810    -2.0950    -1.0460 ha         1 CJK       0.118000
     29 H6           6.9330    -1.2840     0.7090 ha         1 CJK       0.113500
     30 H7           2.9460     0.0630    -2.8100 h1         1 CJK       0.065700
     31 H8           3.7480    -1.5150    -2.7910 h1         1 CJK       0.065700
     32 H9           0.2350    -2.4980    -0.5590 hn         1 CJK       0.147000
     33 H10         -1.0390     0.8380     0.0560 ha         1 CJK       0.138000
     34 H11         -5.0070    -0.5510     1.0840 ha         1 CJK       0.140000
     35 H12         -4.3850    -2.8390     0.3670 ha         1 CJK       0.138000
     36 H13          3.2290     1.6520    -0.8700 ha         1 CJK       0.118000
     37 H14          2.1280    -2.3460    -1.2420 hn         1 CJK       0.310500
     38 H15         -1.3130    -3.5400    -1.2040 ho         1 CJK       0.487000
     39 H16         -4.1840     1.8080    -0.8540 hn         1 CJK       0.471000
     40 H17         -4.8850     2.9870    -0.0260 hn         1 CJK       0.471000
@<TRIPOS>BOND
     1     1    16 1   
     2     1    24 1   
     3     1    25 1   
     4     1    26 1   
     5     2    16 ar  
     6     2    17 ar  
     7     2    27 1   
     8     3     4 ar  
     9     3     6 1   
    10     3    17 ar  
    11     4     5 ar  
    12     4    28 1   
    13     5    16 ar  
    14     5    29 1   
    15     6    18 1   
    16     6    30 1   
    17     6    31 1   
    18     7     8 1   
    19     7    18 1   
    20     7    19 2   
    21     8     9 1   
    22     8    32 1   
    23     9    10 ar  
    24     9    14 ar  
    25    10    11 ar  
    26    10    33 1   
    27    11    12 ar  
    28    11    21 1   
    29    12    13 ar  
    30    12    34 1   
    31    13    14 ar  
    32    13    35 1   
    33    14    20 1   
    34    15    21 2   
    35    17    36 1   
    36    18    37 1   
    37    20    38 1   
    38    21    22 2   
    39    21    23 1   
    40    23    39 1   
    41    23    40 1   
@<TRIPOS>SUBSTRUCTURE
     1 CJK         1 TEMP              0 ****  ****    0 ROOT
