@<TRIPOS>MOLECULE
CJK
   40    41     1     0     0
SMALL
bcc


@<TRIPOS>ATOM
      1 C1           6.4480     2.0820     1.4550 c3         1 CJK      -0.048800
      2 C3           4.3640     1.5260     0.1530 ca         1 CJK      -0.132000
      3 C5           4.0560    -0.6100    -0.9340 ca         1 CJK      -0.131300
      4 C6           5.2950    -1.0040    -0.4430 ca         1 CJK      -0.110000
      5 C7           6.0610    -0.1440     0.3350 ca         1 CJK      -0.132000
      6 C8           3.2140    -1.5490    -1.7610 c3         1 CJK       0.162300
      7 C10          0.8200    -1.5040    -1.2000 c          1 CJK       0.778100
      8 N12         -0.1430    -2.0680    -0.3840 ns         1 CJK      -0.521100
      9 C13         -1.4200    -1.4720    -0.3020 ca         1 CJK      -0.078400
     10 C14         -1.6960    -0.4430     0.5770 ca         1 CJK       0.022000
     11 C15         -2.9750     0.0960     0.6270 ca         1 CJK      -0.319500
     12 C16         -3.9810    -0.3830    -0.2030 ca         1 CJK       0.009000
     13 C17         -3.7090    -1.4100    -1.0870 ca         1 CJK      -0.192000
     14 C18         -2.4320    -1.9640    -1.1400 ca         1 CJK       0.223100
     15 O21         -4.7540     1.5310     1.8850 o          1 CJK      -0.619800
     16 C2           5.6100     1.1350     0.6440 ca         1 CJK      -0.065300
     17 C4           3.5990     0.6700    -0.6230 ca         1 CJK      -0.110000
     18 N9           2.0510    -2.0360    -1.0530 ns         1 CJK      -0.584900
     19 O11          0.5370    -0.6260    -2.0020 o          1 CJK      -0.615100
     20 O19         -2.1980    -2.9650    -1.9870 oh         1 CJK      -0.475100
     21 S20         -3.3070     1.4000     1.7620 sy         1 CJK       1.275200
     22 O22         -2.5300     1.2040     2.9780 o          1 CJK      -0.619800
     23 N23         -2.6110     2.6870     0.9900 n8         1 CJK      -0.885700
     24 H1           7.0510     2.7210     0.8060 hc         1 CJK       0.044033
     25 H2           5.8300     2.7370     2.0680 hc         1 CJK       0.044033
     26 H3           7.1340     1.5500     2.1140 hc         1 CJK       0.044033
     27 H4           3.9870     2.5170     0.3800 ha         1 CJK       0.131500
     28 H5           5.6700    -1.9960    -0.6670 ha         1 CJK       0.136000
     29 H6           7.0220    -0.4770     0.7070 ha         1 CJK       0.131500
     30 H7           2.8760    -1.0540    -2.6710 h1         1 CJK       0.065700
     31 H8           3.8100    -2.4080    -2.0710 h1         1 CJK       0.065700
     32 H9           0.1530    -2.6270     0.4040 hn         1 CJK       0.313500
     33 H10         -0.9060    -0.0740     1.2190 ha         1 CJK       0.156000
     34 H11         -4.9780     0.0330    -0.1640 ha         1 CJK       0.158000
     35 H12         -4.4870    -1.7920    -1.7340 ha         1 CJK       0.156000
     36 H13          2.6360     1.0010    -0.9940 ha         1 CJK       0.136000
     37 H14          2.2080    -2.7220    -0.3320 hn         1 CJK       0.310500
     38 H15         -1.2930    -3.2850    -1.8570 ho         1 CJK       0.448000
     39 H16         -3.1340     2.9740     0.1690 hn         1 CJK       0.415800
     40 H17         -2.4940     3.4760     1.6190 hn         1 CJK       0.415800
@<TRIPOS>BOND
     1     1    16 1   
     2     1    24 1   
     3     1    25 1   
     4     1    26 1   
     5     2    16 ar  
     6     2    17 ar  
     7     2    27 1   
     8     3     4 ar  
     9     3     6 1   
    10     3    17 ar  
    11     4     5 ar  
    12     4    28 1   
    13     5    16 ar  
    14     5    29 1   
    15     6    18 1   
    16     6    30 1   
    17     6    31 1   
    18     7     8 1   
    19     7    18 1   
    20     7    19 2   
    21     8     9 1   
    22     8    32 1   
    23     9    10 ar  
    24     9    14 ar  
    25    10    11 ar  
    26    10    33 1   
    27    11    12 ar  
    28    11    21 1   
    29    12    13 ar  
    30    12    34 1   
    31    13    14 ar  
    32    13    35 1   
    33    14    20 1   
    34    15    21 2   
    35    17    36 1   
    36    18    37 1   
    37    20    38 1   
    38    21    22 2   
    39    21    23 1   
    40    23    39 1   
    41    23    40 1   
@<TRIPOS>SUBSTRUCTURE
     1 CJK         1 TEMP              0 ****  ****    0 ROOT
