@<TRIPOS>MOLECULE
CJL
   43    46     1     0     0
SMALL
bcc


@<TRIPOS>ATOM
      1 C10         27.3880     6.6810   -19.3240 cx         1 CJL      -0.133400
      2 C13         31.3330     7.6910   -16.2300 c6         1 CJL       0.220800
      3 C18         33.9610    10.1940   -17.0990 cy         1 CJL       0.105500
      4 C17         31.3590     9.3960   -14.5450 c6         1 CJL       0.220800
      5 C16         32.2610    10.2480   -15.4220 c6         1 CJL       0.135300
      6 C14         32.2330     8.5480   -17.1080 c6         1 CJL       0.135300
      7 C19         35.1110    10.8840   -16.3580 cy         1 CJL       0.119900
      8 C21         35.0830     9.4260   -17.8060 cy         1 CJL       0.119900
      9 N12         30.5320     8.5280   -15.3620 nh         1 CJL      -0.781300
     10 C02         27.3640     9.9710   -14.9740 ca         1 CJL       0.957900
     11 C04         29.2090     8.7700   -15.5550 ca         1 CJL       0.774200
     12 C05         28.4270     8.0170   -16.4440 ca         1 CJL      -0.552600
     13 C06         27.0740     8.3470   -16.5160 ca         1 CJL       0.762200
     14 C08         26.5640     6.5340   -18.0790 cx         1 CJL       0.164500
     15 C09         25.9310     6.3520   -19.4200 cx         1 CJL      -0.133400
     16 N03         28.6660     9.7490   -14.8230 nb         1 CJL      -0.883000
     17 N07         26.2200     7.7010   -17.3460 nu         1 CJL      -0.855900
     18 N11         26.5300     9.3250   -15.7800 nb         1 CJL      -0.875000
     19 N15         33.0710     9.4060   -16.2880 n3         1 CJL      -0.706600
     20 O20         36.0920    10.2080   -17.1540 oq         1 CJL      -0.400600
     21 H1          28.1110     5.9070   -19.5440 hc         1 CJL       0.078950
     22 H2          27.6980     7.6820   -19.5970 hc         1 CJL       0.078950
     23 H3          30.7140     7.0530   -16.8530 h1         1 CJL       0.066700
     24 H4          31.9490     7.0310   -15.6120 h1         1 CJL       0.066700
     25 H5          33.4170    10.8740   -17.7730 h1         1 CJL       0.044700
     26 H6          31.9730     8.7740   -13.8860 h1         1 CJL       0.066700
     27 H7          30.7280    10.0250   -13.9260 h1         1 CJL       0.066700
     28 H8          32.9170    10.8430   -14.7830 h1         1 CJL       0.042700
     29 H9          31.6400    10.9540   -16.0010 h1         1 CJL       0.042700
     30 H10         31.6070     9.1300   -17.8070 h1         1 CJL       0.042700
     31 H11         32.8660     7.8920   -17.7100 h1         1 CJL       0.042700
     32 H12         35.1810    10.6190   -15.2980 h1         1 CJL       0.055700
     33 H13         35.1680    11.9710   -16.4580 h1         1 CJL       0.055700
     34 H14         35.1200     9.5170   -18.8940 h1         1 CJL       0.055700
     35 H15         35.1380     8.3670   -17.5340 h1         1 CJL       0.055700
     36 H16         28.8220     7.2120   -17.0390 ha         1 CJL       0.148000
     37 H17         26.7340     5.6350   -17.4910 h1         1 CJL       0.076700
     38 H18         25.2610     7.1290   -19.7650 hc         1 CJL       0.078950
     39 H19         25.6430     5.3500   -19.7070 hc         1 CJL       0.078950
     40 H20         25.8410    11.0210   -14.1460 hn         1 CJL       0.425800
     41 H21         27.3710    11.3220   -13.4630 hn         1 CJL       0.425800
     42 H22         25.2420     7.9020   -17.2070 hn         1 CJL       0.447800
     43 N01         26.8410    10.9970   -14.2530 nv         1 CJL      -0.941500
@<TRIPOS>BOND
     1     1    14 1   
     2     1    15 1   
     3     1    21 1   
     4     1    22 1   
     5     2     6 1   
     6     2     9 1   
     7     2    23 1   
     8     2    24 1   
     9     3     7 1   
    10     3     8 1   
    11     3    19 1   
    12     3    25 1   
    13     4     5 1   
    14     4     9 1   
    15     4    26 1   
    16     4    27 1   
    17     5    19 1   
    18     5    28 1   
    19     5    29 1   
    20     6    19 1   
    21     6    30 1   
    22     6    31 1   
    23     7    20 1   
    24     7    32 1   
    25     7    33 1   
    26     8    20 1   
    27     8    34 1   
    28     8    35 1   
    29     9    11 1   
    30    10    16 ar  
    31    10    18 ar  
    32    10    43 1   
    33    11    12 ar  
    34    11    16 ar  
    35    12    13 ar  
    36    12    36 1   
    37    13    17 1   
    38    13    18 ar  
    39    14    15 1   
    40    14    17 1   
    41    14    37 1   
    42    15    38 1   
    43    15    39 1   
    44    17    42 1   
    45    40    43 1   
    46    41    43 1   
@<TRIPOS>SUBSTRUCTURE
     1 CJL         1 TEMP              0 ****  ****    0 ROOT
