@<TRIPOS>MOLECULE
CJL
   43    46     1     0     0
SMALL
No Charge or Current Charge


@<TRIPOS>ATOM
      1 C10         26.8070     6.2640   -19.2820 cx         1 CJL      -0.133400
      2 C13         31.3500     7.8300   -16.7090 c6         1 CJL       0.220800
      3 C18         34.2430    10.4250   -16.7860 cy         1 CJL       0.105500
      4 C17         31.3970     9.0510   -14.5340 c6         1 CJL       0.220800
      5 C16         32.4140    10.0670   -15.1470 c6         1 CJL       0.135300
      6 C14         32.3800     8.8610   -17.2790 c6         1 CJL       0.135300
      7 C19         35.4310    10.8910   -15.8800 cy         1 CJL       0.143100
      8 C21         35.4030     9.8720   -17.6800 cy         1 CJL       0.143100
      9 N12         30.5410     8.4070   -15.5870 nh         1 CJL      -0.781300
     10 C02         27.4520    10.1700   -15.4210 ca         1 CJL       0.431900
     11 C04         29.1820     8.7390   -15.7640 ca         1 CJL       0.445900
     12 C05         28.3160     7.8890   -16.4590 ca         1 CJL      -0.404000
     13 C06         26.9870     8.2950   -16.5870 ca         1 CJL       0.433900
     14 C08         26.2400     6.2660   -17.8850 cx         1 CJL       0.164500
     15 C09         25.3540     5.9250   -19.0570 cx         1 CJL      -0.133400
     16 N03         28.7420     9.8920   -15.2310 nb         1 CJL      -0.357000
     17 N07         26.0410     7.5410   -17.2530 nu         1 CJL      -0.911100
     18 N11         26.5410     9.4430   -16.0690 nb         1 CJL      -0.349000
     19 N15         33.2570     9.4570   -16.2230 n3         1 CJL      -0.706600
     20 O20         36.2630    10.9210   -17.0990 oq         1 CJL      -0.447000
     21 H1          27.4830     5.4560   -19.5470 hc         1 CJL       0.078950
     22 H2          27.0420     7.2230   -19.7390 hc         1 CJL       0.078950
     23 H3          30.7100     7.4940   -17.5370 h1         1 CJL       0.066700
     24 H4          31.8940     6.9420   -16.3550 h1         1 CJL       0.066700
     25 H5          33.7430    11.2790   -17.2610 h1         1 CJL       0.044700
     26 H6          31.9630     8.2740   -14.0000 h1         1 CJL       0.066700
     27 H7          30.7930     9.5610   -13.7700 h1         1 CJL       0.066700
     28 H8          33.0480    10.4530   -14.3360 h1         1 CJL       0.042700
     29 H9          31.8500    10.9230   -15.5480 h1         1 CJL       0.042700
     30 H10         31.8210     9.6560   -17.7950 h1         1 CJL       0.042700
     31 H11         32.9890     8.3550   -18.0410 h1         1 CJL       0.042700
     32 H12         35.7850    10.1390   -15.1640 h1         1 CJL       0.055700
     33 H13         35.3190    11.8760   -15.4160 h1         1 CJL       0.055700
     34 H14         35.2650     9.9840   -18.7610 h1         1 CJL       0.055700
     35 H15         35.7500     8.8670   -17.4140 h1         1 CJL       0.055700
     36 H16         28.6590     6.9480   -16.8680 ha         1 CJL       0.130000
     37 H17         26.5360     5.4550   -17.2150 h1         1 CJL       0.076700
     38 H18         24.6110     6.6530   -19.3710 hc         1 CJL       0.078950
     39 H19         25.0520     4.8880   -19.1710 hc         1 CJL       0.078950
     40 H20         26.0090    11.4630   -14.8040 hn         1 CJL       0.481000
     41 H21         27.5980    11.7920   -14.1990 hn         1 CJL       0.481000
     42 H22         25.1150     7.9680   -17.2490 hn         1 CJL       0.503000
     43 N01         27.0130    11.3270   -14.8860 nv         1 CJL      -1.051900
@<TRIPOS>BOND
     1     1    14 1   
     2     1    15 1   
     3     1    21 1   
     4     1    22 1   
     5     2     6 1   
     6     2     9 1   
     7     2    23 1   
     8     2    24 1   
     9     3     7 1   
    10     3     8 1   
    11     3    19 1   
    12     3    25 1   
    13     4     5 1   
    14     4     9 1   
    15     4    26 1   
    16     4    27 1   
    17     5    19 1   
    18     5    28 1   
    19     5    29 1   
    20     6    19 1   
    21     6    30 1   
    22     6    31 1   
    23     7    20 1   
    24     7    32 1   
    25     7    33 1   
    26     8    20 1   
    27     8    34 1   
    28     8    35 1   
    29     9    11 1   
    30    10    16 ar  
    31    10    18 ar  
    32    10    43 1   
    33    11    12 ar  
    34    11    16 ar  
    35    12    13 ar  
    36    12    36 1   
    37    13    17 1   
    38    13    18 ar  
    39    14    15 1   
    40    14    17 1   
    41    14    37 1   
    42    15    38 1   
    43    15    39 1   
    44    17    42 1   
    45    40    43 1   
    46    41    43 1   
@<TRIPOS>SUBSTRUCTURE
     1 CJL         1 TEMP              0 ****  ****    0 ROOT
