@<TRIPOS>MOLECULE
CJM
   59    63     1     0     0
SMALL
bcc


@<TRIPOS>ATOM
      1 C1          -4.7680    -3.6150    -0.6600 c3         1 CJM      -0.114100
      2 C2          -4.0020    -3.7680     0.6420 c3         1 CJM       0.061300
      3 C7          -2.3120    -1.9210     0.4550 ca         1 CJM       0.490800
      4 C9          -2.4710     0.2840     0.3200 ca         1 CJM       0.965900
      5 C11         -0.3520    -0.6390     0.1940 ca         1 CJM       0.811200
      6 C13          1.5790     0.8130    -0.1190 c3         1 CJM       0.225500
      7 C14          3.0540     0.6440    -0.2450 cc         1 CJM       0.402800
      8 C16          4.9990    -0.1890    -0.3700 ca         1 CJM       0.054400
      9 N18          3.8900     1.6960    -0.4070 na         1 CJM      -0.254300
     10 C19          6.4060     1.7990    -0.6610 ca         1 CJM      -0.121000
     11 C20          7.5050     0.9600    -0.7050 ca         1 CJM      -0.125000
     12 C21          7.3550    -0.4200    -0.5850 ca         1 CJM       0.069900
     13 C22          6.1200    -1.0080    -0.4160 ca         1 CJM       0.160900
     14 N25         -3.2150     1.4290     0.3260 nh         1 CJM      -0.762300
     15 C27         -3.2620     3.8740     0.5950 c6         1 CJM      -0.086400
     16 C30         -4.6720     1.3210     0.2670 c6         1 CJM       0.235500
     17 C31         -5.1560     1.1030    -1.1730 c3         1 CJM      -0.105400
     18 C32         -6.5980     0.6320    -1.2350 c3         1 CJM       0.143400
     19 N3          -2.6560    -3.2350     0.5570 na         1 CJM      -0.258000
     20 C4          -1.4870    -3.9420     0.4840 cc         1 CJM       0.388700
     21 N5          -0.4310    -3.1920     0.3530 nd         1 CJM      -0.533100
     22 C6          -0.9330    -1.9140     0.3320 ca         1 CJM      -0.263200
     23 N8          -3.1230    -0.8700     0.4590 nb         1 CJM      -0.819000
     24 N10         -1.1390     0.4290     0.1850 nb         1 CJM      -0.891000
     25 N15          3.6750    -0.5030    -0.2170 nd         1 CJM      -0.563100
     26 C17          5.1650     1.1990    -0.4940 ca         1 CJM      -0.071200
     27 F23          6.0020    -2.3320    -0.3010 f          1 CJM      -0.103900
     28 F24          8.4410    -1.2060    -0.6330 f          1 CJM      -0.127900
     29 C26         -2.6340     2.6870    -0.1170 c6         1 CJM       0.224800
     30 C28         -4.7770     3.8550     0.4580 c6         1 CJM      -0.075400
     31 C29         -5.3090     2.5230     0.9640 c6         1 CJM      -0.080400
     32 O33         -6.9230     0.3460    -2.5790 oh         1 CJM      -0.599800
     33 H1          -5.7660    -4.0400    -0.5520 hc         1 CJM       0.050033
     34 H2          -4.8760    -2.5640    -0.9290 hc         1 CJM       0.050033
     35 H3          -4.2650    -4.1320    -1.4770 hc         1 CJM       0.050033
     36 H4          -4.5220    -3.2590     1.4540 h1         1 CJM       0.056700
     37 H5          -3.9180    -4.8180     0.9210 h1         1 CJM       0.056700
     38 H6           1.3630     1.4840     0.7200 h1         1 CJM       0.064200
     39 H7           1.1940     1.3120    -1.0150 h1         1 CJM       0.064200
     40 H8           3.6240     2.6670    -0.4560 hn         1 CJM       0.312700
     41 H9           6.5200     2.8700    -0.7530 ha         1 CJM       0.146000
     42 H10          8.5000     1.3650    -0.8360 ha         1 CJM       0.155000
     43 H11         -2.9900     3.8450     1.6550 hc         1 CJM       0.046700
     44 H12         -2.8410     4.7920     0.1810 hc         1 CJM       0.046700
     45 H13         -4.9440     0.4310     0.8350 h1         1 CJM       0.084700
     46 H14         -5.0410     2.0110    -1.7720 hc         1 CJM       0.060200
     47 H15         -4.5260     0.3360    -1.6310 hc         1 CJM       0.060200
     48 H16         -6.7070    -0.2570    -0.5980 h1         1 CJM       0.015700
     49 H17         -7.2680     1.3970    -0.8240 h1         1 CJM       0.015700
     50 H18         -1.4850    -5.0210     0.5390 h5         1 CJM       0.062800
     51 H19          1.5670    -1.2860     0.0450 hn         1 CJM       0.494800
     52 H21         -1.5650     2.6590     0.0700 h1         1 CJM       0.051200
     53 H22         -2.7610     2.8050    -1.2020 h1         1 CJM       0.051200
     54 H23         -5.2270     4.6780     1.0170 hc         1 CJM       0.042200
     55 H24         -5.0540     4.0040    -0.5910 hc         1 CJM       0.042200
     56 H25         -6.3940     2.4700     0.8530 hc         1 CJM       0.047200
     57 H26         -5.1090     2.4440     2.0370 hc         1 CJM       0.047200
     58 H27         -7.8450     0.0760    -2.6120 ho         1 CJM       0.402000
     59 N12          0.9710    -0.4730     0.0680 nu         1 CJM      -0.858900
@<TRIPOS>BOND
     1     1     2 1   
     2     1    33 1   
     3     1    34 1   
     4     1    35 1   
     5     2    19 1   
     6     2    36 1   
     7     2    37 1   
     8     3    19 1   
     9     3    22 ar  
    10     3    23 ar  
    11     4    14 1   
    12     4    23 ar  
    13     4    24 ar  
    14     5    22 ar  
    15     5    24 ar  
    16     5    59 1   
    17     6     7 1   
    18     6    38 1   
    19     6    39 1   
    20     6    59 1   
    21     7     9 1   
    22     7    25 2   
    23     8    13 ar  
    24     8    25 1   
    25     8    26 ar  
    26     9    26 1   
    27     9    40 1   
    28    10    11 ar  
    29    10    26 ar  
    30    10    41 1   
    31    11    12 ar  
    32    11    42 1   
    33    12    13 ar  
    34    12    28 1   
    35    13    27 1   
    36    14    16 1   
    37    14    29 1   
    38    15    29 1   
    39    15    30 1   
    40    15    43 1   
    41    15    44 1   
    42    16    17 1   
    43    16    31 1   
    44    16    45 1   
    45    17    18 1   
    46    17    46 1   
    47    17    47 1   
    48    18    32 1   
    49    18    48 1   
    50    18    49 1   
    51    19    20 1   
    52    20    21 2   
    53    20    50 1   
    54    21    22 1   
    55    29    52 1   
    56    29    53 1   
    57    30    31 1   
    58    30    54 1   
    59    30    55 1   
    60    31    56 1   
    61    31    57 1   
    62    32    58 1   
    63    51    59 1   
@<TRIPOS>SUBSTRUCTURE
     1 CJM         1 TEMP              0 ****  ****    0 ROOT
