@<TRIPOS>MOLECULE
CJM
   59    63     1     0     0
SMALL
No Charge or Current Charge


@<TRIPOS>ATOM
      1 C1          -4.7240    -3.9800    -0.4620 c3         1 CJM      -0.114100
      2 C2          -3.9340    -3.8760     0.8560 c3         1 CJM       0.090600
      3 C7          -2.3350    -1.9890     0.5480 ca         1 CJM       0.162500
      4 C9          -2.5230     0.2910     0.4030 ca         1 CJM       0.439900
      5 C11         -0.4220    -0.6180     0.2240 ca         1 CJM       0.482900
      6 C13          1.6980     0.8180    -0.1290 c3         1 CJM       0.225500
      7 C14          3.2040     0.6210    -0.2930 cc         1 CJM       0.402800
      8 C16          5.1920    -0.2370    -0.4640 ca         1 CJM       0.054400
      9 N18          4.1080     1.6680    -0.4770 na         1 CJM      -0.304600
     10 C19          6.5910     1.7320    -0.7760 ca         1 CJM      -0.103000
     11 C20          7.7280     0.8990    -0.8480 ca         1 CJM      -0.107000
     12 C21          7.5890    -0.5040    -0.7280 ca         1 CJM       0.105000
     13 C22          6.3150    -1.0860    -0.5340 ca         1 CJM       0.196000
     14 N25         -3.3520     1.4490     0.4090 nh         1 CJM      -0.762300
     15 C27         -3.5430     3.9400     0.8530 c6         1 CJM      -0.086400
     16 C30         -4.8410     1.3360     0.2210 c6         1 CJM       0.235500
     17 C31         -5.1730     1.2380    -1.3020 c3         1 CJM      -0.105400
     18 C32         -6.6450     0.9140    -1.6230 c3         1 CJM       0.166600
     19 N3          -2.5830    -3.3240     0.6680 na         1 CJM      -0.287300
     20 C4          -1.3720    -4.0120     0.5720 cc         1 CJM       0.388700
     21 N5          -0.3500    -3.1520     0.3940 nd         1 CJM      -0.533100
     22 C6          -0.9800    -1.8990     0.3810 ca         1 CJM      -0.132600
     23 N8          -3.1330    -0.9080     0.5650 nb         1 CJM      -0.293000
     24 N10         -1.1940     0.4810     0.2340 nb         1 CJM      -0.365000
     25 N15          3.8470    -0.5710    -0.2800 nd         1 CJM      -0.563100
     26 C17          5.3470     1.1160    -0.5830 ca         1 CJM      -0.071200
     27 F23          6.1770    -2.4290    -0.4180 f          1 CJM      -0.139000
     28 F24          8.6900    -1.2870    -0.8000 f          1 CJM      -0.163000
     29 C26         -2.7860     2.8110     0.1130 c6         1 CJM       0.224800
     30 C28         -5.0600     3.8820     0.5850 c6         1 CJM      -0.075400
     31 C29         -5.5900     2.4830     0.9640 c6         1 CJM      -0.080400
     32 O33         -6.8030     0.7440    -3.0340 oh         1 CJM      -0.662000
     33 H1          -5.7180    -4.4030    -0.2770 hc         1 CJM       0.050033
     34 H2          -4.8500    -2.9900    -0.9180 hc         1 CJM       0.050033
     35 H3          -4.2010    -4.6270    -1.1760 hc         1 CJM       0.050033
     36 H4          -4.4840    -3.2380     1.5610 h1         1 CJM       0.056700
     37 H5          -3.8490    -4.8730     1.3060 h1         1 CJM       0.056700
     38 H6           1.5320     1.4740     0.7360 h1         1 CJM       0.064200
     39 H7           1.3250     1.3470    -1.0170 h1         1 CJM       0.064200
     40 H8           3.8730     2.6510    -0.5230 hn         1 CJM       0.363000
     41 H9           6.6790     2.8130    -0.8670 ha         1 CJM       0.128000
     42 H10          8.7130     1.3340    -0.9970 ha         1 CJM       0.137000
     43 H11         -3.3550     3.8550     1.9320 hc         1 CJM       0.046700
     44 H12         -3.1450     4.9160     0.5440 hc         1 CJM       0.046700
     45 H13         -5.2110     0.4070     0.6810 h1         1 CJM       0.084700
     46 H14         -4.8980     2.1660    -1.8160 hc         1 CJM       0.060200
     47 H15         -4.5540     0.4500    -1.7480 hc         1 CJM       0.060200
     48 H16         -6.9360    -0.0040    -1.0950 h1         1 CJM       0.015700
     49 H17         -7.2890     1.7290    -1.2700 h1         1 CJM       0.015700
     50 H18         -1.3050    -5.0910     0.6370 h5         1 CJM       0.062800
     51 H19          1.4780    -1.3230     0.0510 hn         1 CJM       0.550000
     52 H21         -1.7320     2.8850     0.4160 h1         1 CJM       0.051200
     53 H22         -2.8200     3.0020    -0.9700 h1         1 CJM       0.051200
     54 H23         -5.5750     4.6520     1.1750 hc         1 CJM       0.042200
     55 H24         -5.2690     4.1010    -0.4710 hc         1 CJM       0.042200
     56 H25         -6.6700     2.4260     0.7800 hc         1 CJM       0.047200
     57 H26         -5.4680     2.3370     2.0460 hc         1 CJM       0.047200
     58 H27         -7.7520     0.5390    -3.1930 ho         1 CJM       0.441000
     59 N12          0.9420    -0.4510     0.0520 nu         1 CJM      -0.914100
@<TRIPOS>BOND
     1     1     2 1   
     2     1    33 1   
     3     1    34 1   
     4     1    35 1   
     5     2    19 1   
     6     2    36 1   
     7     2    37 1   
     8     3    19 1   
     9     3    22 ar  
    10     3    23 ar  
    11     4    14 1   
    12     4    23 ar  
    13     4    24 ar  
    14     5    22 ar  
    15     5    24 ar  
    16     5    59 1   
    17     6     7 1   
    18     6    38 1   
    19     6    39 1   
    20     6    59 1   
    21     7     9 1   
    22     7    25 2   
    23     8    13 ar  
    24     8    25 1   
    25     8    26 ar  
    26     9    26 1   
    27     9    40 1   
    28    10    11 ar  
    29    10    26 ar  
    30    10    41 1   
    31    11    12 ar  
    32    11    42 1   
    33    12    13 ar  
    34    12    28 1   
    35    13    27 1   
    36    14    16 1   
    37    14    29 1   
    38    15    29 1   
    39    15    30 1   
    40    15    43 1   
    41    15    44 1   
    42    16    17 1   
    43    16    31 1   
    44    16    45 1   
    45    17    18 1   
    46    17    46 1   
    47    17    47 1   
    48    18    32 1   
    49    18    48 1   
    50    18    49 1   
    51    19    20 1   
    52    20    21 2   
    53    20    50 1   
    54    21    22 1   
    55    29    52 1   
    56    29    53 1   
    57    30    31 1   
    58    30    54 1   
    59    30    55 1   
    60    31    56 1   
    61    31    57 1   
    62    32    58 1   
    63    51    59 1   
@<TRIPOS>SUBSTRUCTURE
     1 CJM         1 TEMP              0 ****  ****    0 ROOT
