@<TRIPOS>MOLECULE
CJN
   49    51     1     0     0
SMALL
abcg2


@<TRIPOS>ATOM
      1 C1           2.2220    -2.5310    -1.1560 c3         1 CJN      -0.111600
      2 C2           2.8230    -2.1170     0.1830 c3         1 CJN       0.089300
      3 C3           3.8800    -3.1110     0.6390 c3         1 CJN      -0.111600
      4 C7           3.5240     1.4790    -0.1060 ca         1 CJN       0.123800
      5 C9           1.8640     2.9560     0.0380 ca         1 CJN       0.138900
      6 C11          1.2640     0.7480     0.3030 ca         1 CJN       0.404900
      7 C13         -1.1280     0.1790     0.5530 c6         1 CJN       0.237500
      8 C15         -1.8880    -0.9000     1.3170 c6         1 CJN      -0.090400
      9 C16         -3.3880    -0.6260     1.3190 c6         1 CJN      -0.084900
     10 C19         -3.1830     0.6040    -0.8520 c6         1 CJN      -0.084900
     11 C20         -1.6820     0.3370    -0.8620 c6         1 CJN      -0.090400
     12 C22         -5.9610    -0.7030    -1.4080 c3         1 CJN       0.156600
     13 C24          2.6280     0.4200     0.1210 ca         1 CJN      -0.213200
     14 N4           3.3510    -0.7530     0.1140 na         1 CJN      -0.068700
     15 C5           4.6530    -0.4380    -0.1310 cc         1 CJN      -0.148100
     16 C6           4.8120     0.9140    -0.2650 cd         1 CJN      -0.364800
     17 N8           3.1480     2.7740    -0.1460 nb         1 CJN      -0.174000
     18 N10          0.9240     2.0330     0.2480 nb         1 CJN      -0.282000
     19 C17         -3.9340    -0.5030    -0.1030 c6         1 CJN       0.182500
     20 N21         -5.3890    -0.3980    -0.1150 n3         1 CJN      -0.724600
     21 C23         -5.9150     0.8470     0.4020 c3         1 CJN       0.156600
     22 H1           2.9940    -2.5590    -1.9260 hc         1 CJN       0.049700
     23 H2           1.7840    -3.5260    -1.0780 hc         1 CJN       0.049700
     24 H3           1.4400    -1.8490    -1.4940 hc         1 CJN       0.049700
     25 H4           2.0550    -2.1190     0.9580 h1         1 CJN       0.058700
     26 H5           4.6630    -3.2520    -0.1060 hc         1 CJN       0.049700
     27 H6           4.3390    -2.8100     1.5810 hc         1 CJN       0.049700
     28 H7           3.4020    -4.0770     0.7920 hc         1 CJN       0.049700
     29 H8           1.5070     3.9820     0.0130 h5         1 CJN       0.041100
     30 H14         -1.2430     1.1270     1.0840 h1         1 CJN       0.087700
     31 H9          -1.6990    -1.8760     0.8530 hc         1 CJN       0.045200
     32 H10         -1.5170    -0.9600     2.3420 hc         1 CJN       0.045200
     33 H11         -3.9120    -1.4290     1.8420 hc         1 CJN       0.048700
     34 H12         -3.5780     0.2930     1.8820 hc         1 CJN       0.048700
     35 H13         -3.3800     1.5710    -0.3780 hc         1 CJN       0.048700
     36 H15         -3.5420     0.6850    -1.8810 hc         1 CJN       0.048700
     37 H16         -1.1560     1.1470    -1.3730 hc         1 CJN       0.045200
     38 H17         -1.4750    -0.5790    -1.4260 hc         1 CJN       0.045200
     39 H19         -5.6010    -1.6700    -1.7610 h1         1 CJN       0.029367
     40 H20         -7.0480    -0.7660    -1.3230 h1         1 CJN       0.029367
     41 H21         -5.7400     0.0430    -2.1870 h1         1 CJN       0.029367
     42 H22          5.4040    -1.2070    -0.1930 h4         1 CJN       0.212000
     43 H23          5.7380     1.4340    -0.4510 ha         1 CJN       0.218000
     44 H24          0.5030    -1.1270     0.4640 hn         1 CJN       0.478000
     45 H18         -3.7010    -1.4510    -0.6060 h1         1 CJN       0.050700
     46 H26         -5.7010     1.7210    -0.2300 h1         1 CJN       0.029367
     47 H27         -7.0000     0.7710     0.4930 h1         1 CJN       0.029367
     48 H28         -5.5240     1.0530     1.3990 h1         1 CJN       0.029367
     49 N12          0.2870    -0.1500     0.5490 nu         1 CJN      -0.935100
@<TRIPOS>BOND
     1     1     2 1   
     2     1    22 1   
     3     1    23 1   
     4     1    24 1   
     5     2     3 1   
     6     2    14 1   
     7     2    25 1   
     8     3    26 1   
     9     3    27 1   
    10     3    28 1   
    11     4    13 ar  
    12     4    16 1   
    13     4    17 ar  
    14     5    17 ar  
    15     5    18 ar  
    16     5    29 1   
    17     6    13 ar  
    18     6    18 ar  
    19     6    49 1   
    20     7     8 1   
    21     7    11 1   
    22     7    30 1   
    23     7    49 1   
    24     8     9 1   
    25     8    31 1   
    26     8    32 1   
    27     9    19 1   
    28     9    33 1   
    29     9    34 1   
    30    10    11 1   
    31    10    19 1   
    32    10    35 1   
    33    10    36 1   
    34    11    37 1   
    35    11    38 1   
    36    12    20 1   
    37    12    39 1   
    38    12    40 1   
    39    12    41 1   
    40    13    14 1   
    41    14    15 1   
    42    15    16 2   
    43    15    42 1   
    44    16    43 1   
    45    19    20 1   
    46    19    45 1   
    47    20    21 1   
    48    21    46 1   
    49    21    47 1   
    50    21    48 1   
    51    44    49 1   
@<TRIPOS>SUBSTRUCTURE
     1 CJN         1 TEMP              0 ****  ****    0 ROOT
