@<TRIPOS>MOLECULE
CJN
   49    51     1     0     0
SMALL
No Charge or Current Charge


@<TRIPOS>ATOM
      1 C1           1.9040    -2.5540    -0.9900 c3         1 CJN      -0.111600
      2 C2           2.7240    -2.0410     0.2150 c3         1 CJN       0.089300
      3 C3           3.7490    -3.1000     0.6830 c3         1 CJN      -0.111600
      4 C7           3.5610     1.5120    -0.1910 ca         1 CJN       0.123800
      5 C9           2.0040     3.0940     0.2150 ca         1 CJN       0.138900
      6 C11          1.3640     0.8790     0.4510 ca         1 CJN       0.404900
      7 C13         -1.0910     0.2410     0.6900 c6         1 CJN       0.237500
      8 C15         -1.8430    -0.9140     1.3990 c6         1 CJN      -0.090400
      9 C16         -3.3780    -0.7070     1.3290 c6         1 CJN      -0.084900
     10 C19         -3.1060     0.5750    -0.8610 c6         1 CJN      -0.084900
     11 C20         -1.5700     0.3780    -0.7800 c6         1 CJN      -0.090400
     12 C22         -5.8660    -0.7230    -1.6190 c3         1 CJN       0.156600
     13 C24          2.6800     0.5070     0.0970 ca         1 CJN      -0.213200
     14 N4           3.3440    -0.7220    -0.0710 na         1 CJN      -0.068700
     15 C5           4.6710    -0.4970    -0.5100 cc         1 CJN      -0.148100
     16 C6           4.7920     0.8840    -0.5680 cd         1 CJN      -0.364800
     17 N8           3.2780     2.8220    -0.1510 nb         1 CJN      -0.174000
     18 N10          1.0350     2.1910     0.5140 nb         1 CJN      -0.282000
     19 C17         -3.8610    -0.5860    -0.1450 c6         1 CJN       0.182500
     20 N21         -5.3520    -0.4900    -0.2490 n3         1 CJN      -0.724600
     21 C23         -5.9710     0.7020     0.3850 c3         1 CJN       0.156600
     22 H1           2.5610    -2.7570    -1.8440 hc         1 CJN       0.049700
     23 H2           1.3780    -3.4810    -0.7340 hc         1 CJN       0.049700
     24 H3           1.1590    -1.8150    -1.3070 hc         1 CJN       0.049700
     25 H4           2.0450    -1.9070     1.0650 h1         1 CJN       0.058700
     26 H5           4.4420    -3.3670    -0.1240 hc         1 CJN       0.049700
     27 H6           4.3310    -2.7250     1.5330 hc         1 CJN       0.049700
     28 H7           3.2350    -4.0140     1.0030 hc         1 CJN       0.049700
     29 H8           1.7260     4.1450     0.2660 h5         1 CJN       0.041100
     30 H14         -1.3190     1.1750     1.2310 h1         1 CJN       0.087700
     31 H9          -1.5820    -1.8760     0.9370 hc         1 CJN       0.045200
     32 H10         -1.5280    -0.9740     2.4500 hc         1 CJN       0.045200
     33 H11         -3.8860    -1.5480     1.8200 hc         1 CJN       0.048700
     34 H12         -3.6380     0.1940     1.8990 hc         1 CJN       0.048700
     35 H13         -3.3680     1.5400    -0.4060 hc         1 CJN       0.048700
     36 H15         -3.4020     0.6340    -1.9160 hc         1 CJN       0.048700
     37 H16         -1.0670     1.2260    -1.2630 hc         1 CJN       0.045200
     38 H17         -1.2860    -0.5180    -1.3510 hc         1 CJN       0.045200
     39 H19         -5.4460    -1.6450    -2.0430 h1         1 CJN       0.029367
     40 H20         -6.9590    -0.8260    -1.6080 h1         1 CJN       0.029367
     41 H21         -5.6120     0.1120    -2.2860 h1         1 CJN       0.029367
     42 H22          5.3790    -1.2920    -0.7240 h4         1 CJN       0.212000
     43 H23          5.6920     1.4160    -0.8660 ha         1 CJN       0.218000
     44 H24          0.6340    -1.0090     0.6220 hn         1 CJN       0.478000
     45 H18         -3.5530    -1.5180    -0.6430 h1         1 CJN       0.050700
     46 H26         -5.6630     1.6270    -0.1220 h1         1 CJN       0.029367
     47 H27         -7.0660     0.6400     0.3290 h1         1 CJN       0.029367
     48 H28         -5.7050     0.7810     1.4460 h1         1 CJN       0.029367
     49 N12          0.3530    -0.0400     0.7250 nu         1 CJN      -0.935100
@<TRIPOS>BOND
     1     1     2 1   
     2     1    22 1   
     3     1    23 1   
     4     1    24 1   
     5     2     3 1   
     6     2    14 1   
     7     2    25 1   
     8     3    26 1   
     9     3    27 1   
    10     3    28 1   
    11     4    13 ar  
    12     4    16 1   
    13     4    17 ar  
    14     5    17 ar  
    15     5    18 ar  
    16     5    29 1   
    17     6    13 ar  
    18     6    18 ar  
    19     6    49 1   
    20     7     8 1   
    21     7    11 1   
    22     7    30 1   
    23     7    49 1   
    24     8     9 1   
    25     8    31 1   
    26     8    32 1   
    27     9    19 1   
    28     9    33 1   
    29     9    34 1   
    30    10    11 1   
    31    10    19 1   
    32    10    35 1   
    33    10    36 1   
    34    11    37 1   
    35    11    38 1   
    36    12    20 1   
    37    12    39 1   
    38    12    40 1   
    39    12    41 1   
    40    13    14 1   
    41    14    15 1   
    42    15    16 2   
    43    15    42 1   
    44    16    43 1   
    45    19    20 1   
    46    19    45 1   
    47    20    21 1   
    48    21    46 1   
    49    21    47 1   
    50    21    48 1   
    51    44    49 1   
@<TRIPOS>SUBSTRUCTURE
     1 CJN         1 TEMP              0 ****  ****    0 ROOT
