@<TRIPOS>MOLECULE
CJO
   43    44     1     0     0
SMALL
abcg2


@<TRIPOS>ATOM
      1 N1           1.1340     2.0010    -1.8300 n8         1 CJO      -0.989200
      2 CA1          1.5580     2.1040    -0.4450 c3         1 CJO       0.115500
      3 CB1          0.7870     3.1540     0.3810 c3         1 CJO       0.144300
      4 CG1          1.0620     4.5670    -0.0950 c3         1 CJO      -0.091100
      5 OG1         -0.6070     2.9250     0.3240 oh         1 CJO      -0.701000
      6 C1           1.4730     0.7410     0.2590 c5         1 CJO       0.333900
      7 N2           0.0900     0.2690     0.3590 n7         1 CJO      -0.876400
      8 N3           2.1610    -0.3040    -0.4640 n          1 CJO      -0.353800
      9 C2           1.3210    -1.1520    -1.0620 c          1 CJO       0.553000
     10 O2           1.6160    -2.1060    -1.7680 o          1 CJO      -0.584000
     11 CA2         -0.0920    -0.7100    -0.7100 c5         1 CJO       0.071500
     12 CA3          3.5910    -0.4000    -0.5010 c3         1 CJO      -0.047000
     13 C3           4.2170    -0.9500     0.8030 c          1 CJO       0.711000
     14 OXT          5.4620    -0.9500     0.8170 o          1 CJO      -0.727500
     15 CB2         -0.9940    -1.8720    -0.3120 c3         1 CJO      -0.030100
     16 CG2         -2.4030    -1.4290    -0.0310 ca         1 CJO      -0.096300
     17 CD1         -3.2970    -1.2000    -1.0720 ca         1 CJO      -0.067500
     18 CD2         -2.8500    -1.2000     1.2670 ca         1 CJO      -0.067500
     19 CE1         -4.5900    -0.7580    -0.8350 ca         1 CJO      -0.175500
     20 CE2         -4.1380    -0.7580     1.5250 ca         1 CJO      -0.175500
     21 CZ          -5.0190    -0.5320     0.4710 ca         1 CJO       0.124100
     22 OH          -6.2660    -0.1070     0.7660 oh         1 CJO      -0.542100
     23 O3           3.4420    -1.3420     1.6900 o          1 CJO      -0.727500
     24 HN1          0.1380     2.1680    -1.9020 hn         1 CJO       0.393500
     25 HN1A         1.5780     2.7200    -2.3840 hn         1 CJO       0.393500
     26 HA1          2.6120     2.3990    -0.4350 h1         1 CJO       0.067700
     27 HB1          1.1470     3.0740     1.4200 h1         1 CJO       0.032700
     28 HG1          0.7730     4.7030    -1.1390 hc         1 CJO       0.033367
     29 HG1A         0.5130     5.2950     0.5020 hc         1 CJO       0.033367
     30 HG1B         2.1240     4.7980    -0.0050 hc         1 CJO       0.033367
     31 HOG1        -0.7210     1.9570     0.4200 ho         1 CJO       0.489000
     32 HA2         -0.5180    -0.2230    -1.5950 h1         1 CJO       0.083700
     33 HA3          3.8710    -1.0540    -1.3300 h1         1 CJO       0.042700
     34 HA3A         4.0240     0.5780    -0.7290 h1         1 CJO       0.042700
     35 HB2         -0.9820    -2.6010    -1.1240 hc         1 CJO       0.066700
     36 HB2A        -0.5730    -2.3730     0.5650 hc         1 CJO       0.066700
     37 HD1         -2.9850    -1.3730    -2.0960 ha         1 CJO       0.115000
     38 HD2         -2.1830    -1.3770     2.1040 ha         1 CJO       0.115000
     39 HE1         -5.2640    -0.5960    -1.6680 ha         1 CJO       0.112000
     40 HE2         -4.4650    -0.5900     2.5440 ha         1 CJO       0.112000
     41 HOH         -6.7790     0.0080    -0.0410 ho         1 CJO       0.456000
     42 HC1          1.8950     0.8440     1.2620 h2         1 CJO       0.088700
     43 HN2         -0.0220    -0.1960     1.2540 hn         1 CJO       0.423000
@<TRIPOS>BOND
     1     1     2 1   
     2     1    24 1   
     3     1    25 1   
     4     2     3 1   
     5     2     6 1   
     6     2    26 1   
     7     3     4 1   
     8     3     5 1   
     9     3    27 1   
    10     4    28 1   
    11     4    29 1   
    12     4    30 1   
    13     5    31 1   
    14     6     7 1   
    15     6     8 1   
    16     6    42 1   
    17     7    11 1   
    18     7    43 1   
    19     8     9 1   
    20     8    12 1   
    21     9    10 2   
    22     9    11 1   
    23    11    15 1   
    24    11    32 1   
    25    12    13 1   
    26    12    33 1   
    27    12    34 1   
    28    13    14 1   
    29    13    23 1   
    30    15    16 1   
    31    15    35 1   
    32    15    36 1   
    33    16    17 ar  
    34    16    18 ar  
    35    17    19 ar  
    36    17    37 1   
    37    18    20 ar  
    38    18    38 1   
    39    19    21 ar  
    40    19    39 1   
    41    20    21 ar  
    42    20    40 1   
    43    21    22 1   
    44    22    41 1   
@<TRIPOS>SUBSTRUCTURE
     1 CJO         1 TEMP              0 ****  ****    0 ROOT
