@<TRIPOS>MOLECULE
CJO
   43    44     1     0     0
SMALL
No Charge or Current Charge


@<TRIPOS>ATOM
      1 N1           1.1410     1.9380    -1.7900 n8         1 CJO      -0.989200
      2 CA1          1.6230     1.9700    -0.3670 c3         1 CJO       0.115500
      3 CB1          0.8600     3.0550     0.4600 c3         1 CJO       0.144300
      4 CG1          1.0060     4.4920    -0.0880 c3         1 CJO      -0.091100
      5 OG1         -0.5280     2.7020     0.5130 oh         1 CJO      -0.701000
      6 C1           1.5490     0.5680     0.3580 c5         1 CJO       0.333900
      7 N2           0.1480     0.0550     0.5450 n7         1 CJO      -0.876400
      8 N3           2.1920    -0.5510    -0.3670 n          1 CJO      -0.353800
      9 C2           1.3010    -1.3910    -1.0330 c          1 CJO       0.553000
     10 O2           1.5980    -2.3870    -1.6860 o          1 CJO      -0.584000
     11 CA2         -0.0800    -0.8130    -0.6550 c5         1 CJO       0.071500
     12 CA3          3.6620    -0.7940    -0.4360 c3         1 CJO      -0.047000
     13 C3           4.5350     0.0480     0.5280 c          1 CJO       0.711000
     14 OXT          5.1420     1.0070     0.0740 o          1 CJO      -0.727500
     15 CB2         -1.1400    -1.9160    -0.4150 c3         1 CJO      -0.030100
     16 CG2         -2.5350    -1.3740    -0.1110 ca         1 CJO      -0.096300
     17 CD1         -3.2860    -0.7480    -1.1260 ca         1 CJO      -0.067500
     18 CD2         -3.0860    -1.5000     1.1800 ca         1 CJO      -0.067500
     19 CE1         -4.5730    -0.2510    -0.8520 ca         1 CJO      -0.175500
     20 CE2         -4.3730    -1.0030     1.4510 ca         1 CJO      -0.175500
     21 CZ          -5.1150    -0.3790     0.4370 ca         1 CJO       0.124100
     22 OH          -6.3610     0.0990     0.7080 oh         1 CJO      -0.542100
     23 O3           4.5510    -0.2600     1.7110 o          1 CJO      -0.727500
     24 HN1          0.1210     1.8450    -1.7630 hn         1 CJO       0.393500
     25 HN1A         1.2780     2.8660    -2.2050 hn         1 CJO       0.393500
     26 HA1          2.6840     2.2550    -0.3910 h1         1 CJO       0.067700
     27 HB1          1.2770     3.0460     1.4770 h1         1 CJO       0.032700
     28 HG1          0.5520     4.5930    -1.0810 hc         1 CJO       0.033367
     29 HG1A         0.5160     5.2080     0.5830 hc         1 CJO       0.033367
     30 HG1B         2.0640     4.7690    -0.1610 hc         1 CJO       0.033367
     31 HOG1        -0.5150     1.7010     0.5270 ho         1 CJO       0.489000
     32 HA2         -0.4020    -0.2080    -1.5130 h1         1 CJO       0.083700
     33 HA3          3.8570    -1.8510    -0.2180 h1         1 CJO       0.042700
     34 HA3A         4.0000    -0.5980    -1.4610 h1         1 CJO       0.042700
     35 HB2         -1.1980    -2.5560    -1.3040 hc         1 CJO       0.066700
     36 HB2A        -0.8040    -2.5750     0.3950 hc         1 CJO       0.066700
     37 HD1         -2.8730    -0.6470    -2.1270 ha         1 CJO       0.115000
     38 HD2         -2.5190    -1.9810     1.9740 ha         1 CJO       0.115000
     39 HE1         -5.1410     0.2300    -1.6450 ha         1 CJO       0.112000
     40 HE2         -4.7930    -1.1020     2.4480 ha         1 CJO       0.112000
     41 HOH         -6.7240     0.4980    -0.1120 ho         1 CJO       0.456000
     42 HC1          2.0570     0.6550     1.3300 h2         1 CJO       0.088700
     43 HN2          0.1720    -0.5620     1.3680 hn         1 CJO       0.423000
@<TRIPOS>BOND
     1     1     2 1   
     2     1    24 1   
     3     1    25 1   
     4     2     3 1   
     5     2     6 1   
     6     2    26 1   
     7     3     4 1   
     8     3     5 1   
     9     3    27 1   
    10     4    28 1   
    11     4    29 1   
    12     4    30 1   
    13     5    31 1   
    14     6     7 1   
    15     6     8 1   
    16     6    42 1   
    17     7    11 1   
    18     7    43 1   
    19     8     9 1   
    20     8    12 1   
    21     9    10 2   
    22     9    11 1   
    23    11    15 1   
    24    11    32 1   
    25    12    13 1   
    26    12    33 1   
    27    12    34 1   
    28    13    14 1   
    29    13    23 1   
    30    15    16 1   
    31    15    35 1   
    32    15    36 1   
    33    16    17 ar  
    34    16    18 ar  
    35    17    19 ar  
    36    17    37 1   
    37    18    20 ar  
    38    18    38 1   
    39    19    21 ar  
    40    19    39 1   
    41    20    21 ar  
    42    20    40 1   
    43    21    22 1   
    44    22    41 1   
@<TRIPOS>SUBSTRUCTURE
     1 CJO         1 TEMP              0 ****  ****    0 ROOT
