@<TRIPOS>MOLECULE
CJP
   37    39     1     0     0
SMALL
abcg2


@<TRIPOS>ATOM
      1 O23         -1.7110    -3.1000     0.6120 o          1 CJP      -0.514000
      2 S20         -0.8420    -2.3060    -0.2340 s6         1 CJP       1.218200
      3 O22          0.5920    -2.4440    -0.1140 o          1 CJP      -0.514000
      4 C21         -1.3120    -2.5140    -1.9300 c3         1 CJP      -0.370100
      5 N9          -1.2160    -0.6880     0.0770 na         1 CJP      -0.186900
      6 C4          -2.5270    -0.2030     0.0380 ca         1 CJP      -0.036200
      7 C5          -3.7500    -0.8610     0.1420 ca         1 CJP      -0.128000
      8 C6          -4.8950    -0.0870     0.0680 ca         1 CJP      -0.085000
      9 C1          -4.8350     1.3000    -0.1020 ca         1 CJP      -0.132000
     10 C8          -0.3400     0.3990    -0.1060 cc         1 CJP      -0.000300
     11 C7          -1.0620     1.5420    -0.2140 cd         1 CJP      -0.073400
     12 C16         -0.5370     2.9340    -0.3330 c3         1 CJP       0.209000
     13 N17         -0.9380     3.5190    -1.6050 n8         1 CJP      -0.995200
     14 C3          -2.4510     1.1840    -0.1450 ca         1 CJP      -0.074800
     15 C2          -3.6180     1.9450    -0.2090 ca         1 CJP      -0.049000
     16 C10          1.1240     0.2930    -0.0930 ca         1 CJP      -0.041800
     17 C15          1.8470     0.6100    -1.2380 ca         1 CJP      -0.078000
     18 C14          3.2330     0.5920    -1.2510 ca         1 CJP      -0.109000
     19 C13          3.9040     0.2490    -0.0910 ca         1 CJP       0.140000
     20 CL1          5.6320     0.2130    -0.0820 cl         1 CJP      -0.189000
     21 C12          3.2200    -0.0660     1.0740 ca         1 CJP      -0.095000
     22 C11          1.8380    -0.0350     1.0570 ca         1 CJP       0.172000
     23 CL2          0.9860    -0.4040     2.5110 cl         1 CJP      -0.172000
     24 H1          -2.3730    -2.3060    -2.0480 h1         1 CJP       0.109033
     25 H2          -0.7190    -1.8430    -2.5460 h1         1 CJP       0.109033
     26 H3          -1.1060    -3.5500    -2.1970 h1         1 CJP       0.109033
     27 H4          -3.8280    -1.9280     0.2860 ha         1 CJP       0.141000
     28 H5          -5.8590    -0.5730     0.1500 ha         1 CJP       0.116000
     29 H6          -5.7530     1.8710    -0.1560 ha         1 CJP       0.116000
     30 H7          -0.9720     3.5390     0.4670 h1         1 CJP       0.042700
     31 H8           0.5470     2.9330    -0.1610 h1         1 CJP       0.042700
     32 H9          -0.6490     4.4890    -1.6310 hn         1 CJP       0.394500
     33 H10         -0.4440     3.0590    -2.3590 hn         1 CJP       0.394500
     34 H12         -3.5640     3.0150    -0.3560 ha         1 CJP       0.131000
     35 H13          1.3140     0.8730    -2.1420 ha         1 CJP       0.119000
     36 H14          3.7730     0.8420    -2.1530 ha         1 CJP       0.134000
     37 H15          3.7540    -0.3230     1.9780 ha         1 CJP       0.148000
@<TRIPOS>BOND
     1     1     2 2   
     2     2     3 2   
     3     2     4 1   
     4     2     5 1   
     5     4    24 1   
     6     4    25 1   
     7     4    26 1   
     8     5     6 1   
     9     5    10 1   
    10     6     7 ar  
    11     6    14 ar  
    12     7     8 ar  
    13     7    27 1   
    14     8     9 ar  
    15     8    28 1   
    16     9    15 ar  
    17     9    29 1   
    18    10    11 2   
    19    10    16 1   
    20    11    12 1   
    21    11    14 1   
    22    12    13 1   
    23    12    30 1   
    24    12    31 1   
    25    13    32 1   
    26    13    33 1   
    27    14    15 ar  
    28    15    34 1   
    29    16    17 ar  
    30    16    22 ar  
    31    17    18 ar  
    32    17    35 1   
    33    18    19 ar  
    34    18    36 1   
    35    19    20 1   
    36    19    21 ar  
    37    21    22 ar  
    38    21    37 1   
    39    22    23 1   
@<TRIPOS>SUBSTRUCTURE
     1 CJP         1 TEMP              0 ****  ****    0 ROOT
