@<TRIPOS>MOLECULE
CJP
   37    39     1     0     0
SMALL
No Charge or Current Charge


@<TRIPOS>ATOM
      1 O23         -1.9330    -3.1870     0.4390 o          1 CJP      -0.514000
      2 S20         -0.8820    -2.3930    -0.2130 s6         1 CJP       1.218200
      3 O22          0.5250    -2.5180     0.1910 o          1 CJP      -0.514000
      4 C21         -0.9800    -2.7450    -1.9660 c3         1 CJP      -0.370100
      5 N9          -1.3400    -0.7190    -0.1360 na         1 CJP      -0.186900
      6 C4          -2.6300    -0.1760    -0.1050 ca         1 CJP      -0.036200
      7 C5          -3.8830    -0.8150    -0.1700 ca         1 CJP      -0.128000
      8 C6          -5.0470    -0.0190    -0.1240 ca         1 CJP      -0.085000
      9 C1          -4.9520     1.3880    -0.0240 ca         1 CJP      -0.132000
     10 C8          -0.4210     0.3570    -0.0880 cc         1 CJP      -0.000300
     11 C7          -1.1510     1.5360    -0.0110 cd         1 CJP      -0.073400
     12 C16         -0.5940     2.9400     0.0570 c3         1 CJP       0.209000
     13 N17         -0.5460     3.5540    -1.2850 n8         1 CJP      -0.995200
     14 C3          -2.5530     1.1940    -0.0180 ca         1 CJP      -0.074800
     15 C2          -3.6900     2.0130     0.0260 ca         1 CJP      -0.049000
     16 C10          1.0370     0.3420    -0.1700 ca         1 CJP      -0.041800
     17 C15          1.6600     0.2070    -1.4260 ca         1 CJP      -0.078000
     18 C14          3.0630     0.1860    -1.5200 ca         1 CJP      -0.109000
     19 C13          3.8460     0.3000    -0.3610 ca         1 CJP       0.140000
     20 Cl1          5.6000     0.2730    -0.4810 cl         1 CJP      -0.189000
     21 C12          3.2320     0.4350     0.8940 ca         1 CJP      -0.095000
     22 C11          1.8320     0.4550     0.9910 ca         1 CJP       0.172000
     23 Cl2          1.0860     0.6150     2.5810 cl         1 CJP      -0.172000
     24 H1          -2.0080    -2.5430    -2.2850 h1         1 CJP       0.109033
     25 H2          -0.2680    -2.0870    -2.4740 h1         1 CJP       0.109033
     26 H3          -0.7180    -3.7980    -2.1040 h1         1 CJP       0.109033
     27 H4          -3.9740    -1.8950    -0.2560 ha         1 CJP       0.141000
     28 H5          -6.0260    -0.4920    -0.1700 ha         1 CJP       0.116000
     29 H6          -5.8560     1.9920     0.0070 ha         1 CJP       0.116000
     30 H7          -1.2260     3.5550     0.7120 h1         1 CJP       0.042700
     31 H8           0.4200     2.9220     0.4800 h1         1 CJP       0.042700
     32 H9          -0.0840     4.4680    -1.2150 hn         1 CJP       0.394500
     33 H10          0.0880     3.0030    -1.8730 hn         1 CJP       0.394500
     34 H12         -3.6020     3.0950     0.0890 ha         1 CJP       0.131000
     35 H13          1.0570     0.1220    -2.3270 ha         1 CJP       0.119000
     36 H14          3.5420     0.0830    -2.4910 ha         1 CJP       0.134000
     37 H15          3.8400     0.5200     1.7890 ha         1 CJP       0.148000
@<TRIPOS>BOND
     1     1     2 2   
     2     2     3 2   
     3     2     4 1   
     4     2     5 1   
     5     4    24 1   
     6     4    25 1   
     7     4    26 1   
     8     5     6 1   
     9     5    10 1   
    10     6     7 ar  
    11     6    14 ar  
    12     7     8 ar  
    13     7    27 1   
    14     8     9 ar  
    15     8    28 1   
    16     9    15 ar  
    17     9    29 1   
    18    10    11 2   
    19    10    16 1   
    20    11    12 1   
    21    11    14 1   
    22    12    13 1   
    23    12    30 1   
    24    12    31 1   
    25    13    32 1   
    26    13    33 1   
    27    14    15 ar  
    28    15    34 1   
    29    16    17 ar  
    30    16    22 ar  
    31    17    18 ar  
    32    17    35 1   
    33    18    19 ar  
    34    18    36 1   
    35    19    20 1   
    36    19    21 ar  
    37    21    22 ar  
    38    21    37 1   
    39    22    23 1   
@<TRIPOS>SUBSTRUCTURE
     1 CJP         1 TEMP              0 ****  ****    0 ROOT
