@<TRIPOS>MOLECULE
CJQ
   57    61     1     0     0
SMALL
No Charge or Current Charge


@<TRIPOS>ATOM
      1 C1           1.3660     1.4580    -0.3220 ca         1 CJQ       0.404300
      2 C2           2.7170     1.2210    -0.0140 ca         1 CJQ      -0.178800
      3 C3           3.3690    -0.0290     0.3120 cc         1 CJQ      -0.048400
      4 C7           4.1440    -2.1150     1.1510 c5         1 CJQ      -0.078400
      5 C8           2.9510    -1.4650     0.3600 c5         1 CJQ       0.016500
      6 C9           2.7150    -2.0690    -1.0500 c3         1 CJQ      -0.155400
      7 C10          2.2230    -3.5160    -0.9830 c          1 CJQ       0.603100
      8 C11         -0.9330     0.5850    -0.4090 c6         1 CJQ       0.180300
      9 C12         -1.4740     1.0800     0.9610 c6         1 CJQ      -0.088900
     10 C13         -3.0190     1.2050     0.9430 c6         1 CJQ      -0.086900
     11 C14         -3.6900    -0.1460     0.5660 c6         1 CJQ       0.186500
     12 C15         -3.1520    -0.6380    -0.8130 c6         1 CJQ      -0.086900
     13 C16         -1.6050    -0.7550    -0.7990 c6         1 CJQ      -0.088900
     14 C19         -7.3820    -1.3090     0.8220 c6         1 CJQ       0.152100
     15 C20         -5.8400    -1.4200     0.6260 c6         1 CJQ       0.135300
     16 O            1.1000    -3.8270    -0.6250 o          1 CJQ      -0.609100
     17 N2           3.0980    -4.4650    -1.3790 nt         1 CJQ      -0.611000
     18 C6           5.3510    -1.1530     0.8510 c5         1 CJQ      -0.007200
     19 C4           4.6920     0.1730     0.5810 cd         1 CJQ      -0.104600
     20 C5           3.5890     2.2990     0.0160 ca         1 CJQ       0.149300
     21 S            5.2610     1.8550     0.4470 ss         1 CJQ      -0.071900
     22 N1           3.1950     3.5560    -0.2530 nb         1 CJQ      -0.170000
     23 C            1.8860     3.6980    -0.5550 ca         1 CJQ       0.164900
     24 N            0.9530     2.7170    -0.6060 nb         1 CJQ      -0.285000
     25 O1           0.4950     0.3870    -0.3550 os         1 CJQ      -0.456300
     26 N3          -5.1840    -0.0730     0.6560 n3         1 CJQ      -0.731600
     27 O2          -7.9510    -0.4160    -0.1660 os         1 CJQ      -0.451000
     28 C18         -7.3830     0.9150    -0.1080 c6         1 CJQ       0.152100
     29 C17         -5.8400     0.8610    -0.3210 c6         1 CJQ       0.135300
     30 H1           3.9250    -2.1150     2.2250 hc         1 CJQ       0.052700
     31 H2           4.3500    -3.1540     0.8720 hc         1 CJQ       0.052700
     32 H3           2.0130    -1.5710     0.9190 hc         1 CJQ       0.093700
     33 H4           1.9500    -1.4790    -1.5660 hc         1 CJQ       0.064200
     34 H5           3.6480    -2.0180    -1.6220 hc         1 CJQ       0.064200
     35 H6          -1.1690     1.3240    -1.1890 h1         1 CJQ       0.067700
     36 H7          -1.1670     0.3840     1.7540 hc         1 CJQ       0.058450
     37 H8          -1.0350     2.0540     1.2150 hc         1 CJQ       0.058450
     38 H9          -3.3730     1.5320     1.9300 hc         1 CJQ       0.048950
     39 H10         -3.3000     1.9910     0.2310 hc         1 CJQ       0.048950
     40 H11         -3.3490    -0.8760     1.3170 h1         1 CJQ       0.058700
     41 H12         -3.5770    -1.6170    -1.0690 hc         1 CJQ       0.048950
     42 H13         -3.4510     0.0540    -1.6110 hc         1 CJQ       0.048950
     43 H14         -1.2490    -1.0700    -1.7890 hc         1 CJQ       0.058450
     44 H15         -1.3000    -1.5400    -0.0940 hc         1 CJQ       0.058450
     45 H17         -7.6060    -0.9280     1.8280 h1         1 CJQ       0.050200
     46 H18         -5.4290    -2.0650     1.4170 h1         1 CJQ       0.040200
     47 H19         -5.6550    -1.9240    -0.3330 h1         1 CJQ       0.040200
     48 H20          4.0230    -4.2050    -1.6880 hn         1 CJQ       0.312500
     49 H21          2.8150    -5.4340    -1.3640 hn         1 CJQ       0.312500
     50 H22          6.0540    -1.1110     1.6910 hc         1 CJQ       0.055700
     51 H23          5.9180    -1.4940    -0.0230 hc         1 CJQ       0.055700
     52 H24          1.5450     4.7070    -0.7800 h5         1 CJQ       0.050100
     53 H26         -7.8460     1.5390    -0.8860 h1         1 CJQ       0.050200
     54 H27         -7.6110     1.3640     0.8700 h1         1 CJQ       0.050200
     55 H28         -5.4480     1.8820    -0.2180 h1         1 CJQ       0.040200
     56 H29         -5.6490     0.5410    -1.3550 h1         1 CJQ       0.040200
     57 H16         -7.8440    -2.3010     0.7200 h1         1 CJQ       0.050200
@<TRIPOS>BOND
     1     1     2 ar  
     2     1    24 ar  
     3     1    25 1   
     4     2     3 1   
     5     2    20 ar  
     6     3     5 1   
     7     3    19 2   
     8     4     5 1   
     9     4    18 1   
    10     4    30 1   
    11     4    31 1   
    12     5     6 1   
    13     5    32 1   
    14     6     7 1   
    15     6    33 1   
    16     6    34 1   
    17     7    16 2   
    18     7    17 1   
    19     8     9 1   
    20     8    13 1   
    21     8    25 1   
    22     8    35 1   
    23     9    10 1   
    24     9    36 1   
    25     9    37 1   
    26    10    11 1   
    27    10    38 1   
    28    10    39 1   
    29    11    12 1   
    30    11    26 1   
    31    11    40 1   
    32    12    13 1   
    33    12    41 1   
    34    12    42 1   
    35    13    43 1   
    36    13    44 1   
    37    14    15 1   
    38    14    27 1   
    39    14    45 1   
    40    14    57 1   
    41    15    26 1   
    42    15    46 1   
    43    15    47 1   
    44    17    48 1   
    45    17    49 1   
    46    18    19 1   
    47    18    50 1   
    48    18    51 1   
    49    19    21 1   
    50    20    21 1   
    51    20    22 ar  
    52    22    23 ar  
    53    23    24 ar  
    54    23    52 1   
    55    26    29 1   
    56    27    28 1   
    57    28    29 1   
    58    28    53 1   
    59    28    54 1   
    60    29    55 1   
    61    29    56 1   
@<TRIPOS>SUBSTRUCTURE
     1 CJQ         1 TEMP              0 ****  ****    0 ROOT
