@<TRIPOS>MOLECULE
CJQ
   57    61     1     0     0
SMALL
abcg2


@<TRIPOS>ATOM
      1 C1           1.3020     1.4480    -0.0440 ca         1 CJQ       0.404300
      2 C2           2.6700     1.1540     0.0820 ca         1 CJQ      -0.178800
      3 C3           3.3900    -0.0500     0.3340 cc         1 CJQ      -0.048400
      4 C7           4.3970    -2.0800     1.0050 c5         1 CJQ      -0.078400
      5 C8           3.0470    -1.4990     0.5050 c5         1 CJQ       0.016500
      6 C9           2.5790    -2.1160    -0.8150 c3         1 CJQ      -0.155400
      7 C10          2.1330    -3.5520    -0.6410 c          1 CJQ       0.603100
      8 C11         -0.9520     0.6340    -0.1200 c6         1 CJQ       0.180300
      9 C12         -1.6130     1.1250     1.1590 c6         1 CJQ      -0.088900
     10 C13         -3.1240     1.2290     0.9630 c6         1 CJQ      -0.086900
     11 C14         -3.7130    -0.1140     0.5320 c6         1 CJQ       0.186500
     12 C15         -3.0260    -0.6020    -0.7510 c6         1 CJQ      -0.086900
     13 C16         -1.5160    -0.7070    -0.5550 c6         1 CJQ      -0.088900
     14 C19         -7.2880    -1.2360     0.6810 c6         1 CJQ       0.152100
     15 C20         -5.7870    -1.3820     0.5170 c6         1 CJQ       0.135300
     16 O            1.4130    -3.8940     0.2870 o          1 CJQ      -0.609100
     17 N2           2.5680    -4.4070    -1.5770 nt         1 CJQ      -0.611000
     18 C6           5.5120    -1.0990     0.5690 c5         1 CJQ      -0.007200
     19 C4           4.7250     0.1510     0.3620 cd         1 CJQ      -0.104600
     20 C5           3.5200     2.2530    -0.0660 ca         1 CJQ       0.149300
     21 S            5.1900     1.7950     0.0920 ss         1 CJQ      -0.071900
     22 N1           3.1150     3.4990    -0.2990 nb         1 CJQ      -0.170000
     23 C            1.8100     3.6350    -0.3930 ca         1 CJQ       0.164900
     24 N            0.8890     2.6750    -0.2790 nb         1 CJQ      -0.285000
     25 O1           0.4600     0.4410     0.0710 os         1 CJQ      -0.456300
     26 N3          -5.1680    -0.0710     0.4850 n3         1 CJQ      -0.731600
     27 O2          -7.8460    -0.4540    -0.3510 os         1 CJQ      -0.451000
     28 C18         -7.2430     0.8210    -0.3970 c6         1 CJQ       0.152100
     29 C17         -5.7400     0.7240    -0.5860 c6         1 CJQ       0.135300
     30 H1           4.3790    -2.1350     2.0940 hc         1 CJQ       0.052700
     31 H2           4.5790    -3.0900     0.6370 hc         1 CJQ       0.052700
     32 H3           2.2630    -1.6440     1.2500 hc         1 CJQ       0.093700
     33 H4           1.7180    -1.5570    -1.1930 hc         1 CJQ       0.064200
     34 H5           3.3660    -2.0300    -1.5690 hc         1 CJQ       0.064200
     35 H6          -1.1090     1.3680    -0.9160 h1         1 CJQ       0.067700
     36 H7          -1.3930     0.4220     1.9680 hc         1 CJQ       0.058450
     37 H8          -1.2050     2.0950     1.4480 hc         1 CJQ       0.058450
     38 H9          -3.5990     1.5540     1.8900 hc         1 CJQ       0.048950
     39 H10         -3.3330     1.9980     0.2120 hc         1 CJQ       0.048950
     40 H11         -3.4670    -0.8330     1.3250 h1         1 CJQ       0.058700
     41 H12         -3.4210    -1.5750    -1.0510 hc         1 CJQ       0.048950
     42 H13         -3.2370     0.0910    -1.5720 hc         1 CJQ       0.048950
     43 H14         -1.0340    -1.0320    -1.4800 hc         1 CJQ       0.058450
     44 H15         -1.2940    -1.4620     0.2070 hc         1 CJQ       0.058450
     45 H17         -7.5040    -0.7880     1.6620 h1         1 CJQ       0.050200
     46 H18         -5.3920    -1.9480     1.3650 h1         1 CJQ       0.040200
     47 H19         -5.5830    -1.9760    -0.3900 h1         1 CJQ       0.040200
     48 H20          3.1570    -4.1120    -2.3360 hn         1 CJQ       0.312500
     49 H21          2.2830    -5.3730    -1.5610 hn         1 CJQ       0.312500
     50 H22          6.2910    -1.0010     1.3250 hc         1 CJQ       0.055700
     51 H23          6.0020    -1.4090    -0.3580 hc         1 CJQ       0.055700
     52 H24          1.4350     4.6340    -0.5820 h5         1 CJQ       0.050100
     53 H26         -7.6920     1.3630    -1.2310 h1         1 CJQ       0.050200
     54 H27         -7.4570     1.3790     0.5260 h1         1 CJQ       0.050200
     55 H28         -5.3280     1.7350    -0.5660 h1         1 CJQ       0.040200
     56 H29         -5.5280     0.3070    -1.5840 h1         1 CJQ       0.040200
     57 H16         -7.7690    -2.2150     0.6450 h1         1 CJQ       0.050200
@<TRIPOS>BOND
     1     1     2 ar  
     2     1    24 ar  
     3     1    25 1   
     4     2     3 1   
     5     2    20 ar  
     6     3     5 1   
     7     3    19 2   
     8     4     5 1   
     9     4    18 1   
    10     4    30 1   
    11     4    31 1   
    12     5     6 1   
    13     5    32 1   
    14     6     7 1   
    15     6    33 1   
    16     6    34 1   
    17     7    16 2   
    18     7    17 1   
    19     8     9 1   
    20     8    13 1   
    21     8    25 1   
    22     8    35 1   
    23     9    10 1   
    24     9    36 1   
    25     9    37 1   
    26    10    11 1   
    27    10    38 1   
    28    10    39 1   
    29    11    12 1   
    30    11    26 1   
    31    11    40 1   
    32    12    13 1   
    33    12    41 1   
    34    12    42 1   
    35    13    43 1   
    36    13    44 1   
    37    14    15 1   
    38    14    27 1   
    39    14    45 1   
    40    14    57 1   
    41    15    26 1   
    42    15    46 1   
    43    15    47 1   
    44    17    48 1   
    45    17    49 1   
    46    18    19 1   
    47    18    50 1   
    48    18    51 1   
    49    19    21 1   
    50    20    21 1   
    51    20    22 ar  
    52    22    23 ar  
    53    23    24 ar  
    54    23    52 1   
    55    26    29 1   
    56    27    28 1   
    57    28    29 1   
    58    28    53 1   
    59    28    54 1   
    60    29    55 1   
    61    29    56 1   
@<TRIPOS>SUBSTRUCTURE
     1 CJQ         1 TEMP              0 ****  ****    0 ROOT
