@<TRIPOS>MOLECULE
CJR
   39    41     1     0     0
SMALL
bcc


@<TRIPOS>ATOM
      1 C01         26.3760     6.9930   -18.6720 c3         1 CJR       0.224100
      2 N02         26.0030     7.8130   -17.5510 nu         1 CJR      -0.883900
      3 C03         26.8760     8.3990   -16.7110 ca         1 CJR       0.765200
      4 N04         26.3360     9.0560   -15.6750 nb         1 CJR      -0.878000
      5 C05         27.1970     9.6310   -14.8440 ca         1 CJR       0.958900
      6 N06         26.6660    10.3380   -13.8120 nv         1 CJR      -0.943500
      7 N07         28.5230     9.6240   -14.9300 nb         1 CJR      -0.881000
      8 C08         29.0620     8.9790   -15.9710 ca         1 CJR       0.773200
      9 C09         28.2580     8.3230   -16.9110 ca         1 CJR      -0.559600
     10 N10         30.4220     9.0130   -16.0660 nh         1 CJR      -0.778300
     11 C11         31.1390     8.2460   -17.0640 c6         1 CJR       0.219800
     12 C12         32.4370     8.9390   -17.4440 c6         1 CJR       0.156800
     13 N13         33.2540     9.1740   -16.2700 n3         1 CJR      -0.717600
     14 C14         32.5280    10.0260   -15.3470 c6         1 CJR       0.156800
     15 C15         31.2350     9.3640   -14.9150 c6         1 CJR       0.219800
     16 C16         34.5920     9.6390   -16.5170 cy         1 CJR       0.130500
     17 C17         35.4990     8.7760   -17.4030 cy         1 CJR       0.096900
     18 O18         35.7130     9.8550   -18.3200 oq         1 CJR      -0.404600
     19 C19         34.8840    10.7430   -17.5590 cy         1 CJR       0.096900
     20 H1          25.4730     6.6870   -19.1930 h1         1 CJR       0.036033
     21 H2          27.0020     7.5380   -19.3810 h1         1 CJR       0.036033
     22 H3          26.9150     6.0900   -18.3710 h1         1 CJR       0.036033
     23 H4          25.0340     7.8510   -17.2850 hn         1 CJR       0.447800
     24 H5          25.7060    10.1580   -13.5720 hn         1 CJR       0.426300
     25 H6          27.2740    10.5580   -13.0420 hn         1 CJR       0.426300
     26 H7          28.6620     7.7700   -17.7420 ha         1 CJR       0.144000
     27 H8          30.5450     8.1530   -17.9700 h1         1 CJR       0.056450
     28 H9          31.3520     7.2340   -16.6990 h1         1 CJR       0.056450
     29 H10         32.9620     8.2970   -18.1530 h1         1 CJR       0.043950
     30 H11         32.1870     9.8740   -17.9710 h1         1 CJR       0.043950
     31 H13         33.1390    10.2010   -14.4590 h1         1 CJR       0.043950
     32 H14         32.3030    11.0110   -15.7890 h1         1 CJR       0.043950
     33 H15         30.6760    10.0350   -14.2700 h1         1 CJR       0.056450
     34 H16         31.4710     8.4620   -14.3350 h1         1 CJR       0.056450
     35 H17         35.0420     9.8590   -15.5470 h1         1 CJR       0.074700
     36 H18         35.0230     7.9100   -17.8720 h1         1 CJR       0.054700
     37 H19         36.4240     8.4410   -16.9260 h1         1 CJR       0.054700
     38 H20         35.4370    11.6070   -17.1790 h1         1 CJR       0.054700
     39 H21         34.0230    11.1060   -18.1290 h1         1 CJR       0.054700
@<TRIPOS>BOND
     1     1     2 1   
     2     1    20 1   
     3     1    21 1   
     4     1    22 1   
     5     2     3 1   
     6     2    23 1   
     7     3     4 ar  
     8     3     9 ar  
     9     4     5 ar  
    10     5     6 1   
    11     5     7 ar  
    12     6    24 1   
    13     6    25 1   
    14     7     8 ar  
    15     8     9 ar  
    16     8    10 1   
    17     9    26 1   
    18    10    11 1   
    19    10    15 1   
    20    11    12 1   
    21    11    27 1   
    22    11    28 1   
    23    12    13 1   
    24    12    29 1   
    25    12    30 1   
    26    13    14 1   
    27    13    16 1   
    28    14    15 1   
    29    14    31 1   
    30    14    32 1   
    31    15    33 1   
    32    15    34 1   
    33    16    17 1   
    34    16    19 1   
    35    16    35 1   
    36    17    18 1   
    37    17    36 1   
    38    17    37 1   
    39    18    19 1   
    40    19    38 1   
    41    19    39 1   
@<TRIPOS>SUBSTRUCTURE
     1 CJR         1 TEMP              0 ****  ****    0 ROOT
