@<TRIPOS>MOLECULE
CJR
   39    41     1     0     0
SMALL
No Charge or Current Charge


@<TRIPOS>ATOM
      1 C01         26.2060     6.6260   -18.4610 c3         1 CJR       0.224100
      2 N02         25.8940     7.5740   -17.3780 nu         1 CJR      -0.939100
      3 C03         26.7800     8.3310   -16.6400 ca         1 CJR       0.436900
      4 N04         26.2240     9.1190   -15.7170 nb         1 CJR      -0.352000
      5 C05         27.0800     9.8480   -15.0000 ca         1 CJR       0.432900
      6 N06         26.5320    10.6450   -14.0600 nv         1 CJR      -1.053900
      7 N07         28.4090     9.8820   -15.0920 nb         1 CJR      -0.355000
      8 C08         28.9600     9.0870   -16.0260 ca         1 CJR       0.444900
      9 C09         28.1590     8.2750   -16.8400 ca         1 CJR      -0.411000
     10 N10         30.3690     9.1190   -16.1380 nh         1 CJR      -0.778300
     11 C11         31.0760     8.4470   -17.2780 c6         1 CJR       0.219800
     12 C12         32.5130     9.0080   -17.5310 c6         1 CJR       0.156800
     13 N13         33.3600     9.0210   -16.2950 n3         1 CJR      -0.717600
     14 C14         32.6620     9.7970   -15.2260 c6         1 CJR       0.156800
     15 C15         31.2300     9.2560   -14.9130 c6         1 CJR       0.219800
     16 C16         34.7730     9.4910   -16.4950 cy         1 CJR       0.130500
     17 C17         35.6440     8.9180   -17.6640 cy         1 CJR       0.120100
     18 O18         36.2960    10.2400   -17.7300 oq         1 CJR      -0.451000
     19 C19         35.0580    10.8550   -17.2120 cy         1 CJR       0.120100
     20 H1          25.2850     6.1780   -18.8570 h1         1 CJR       0.036033
     21 H2          26.7230     7.1390   -19.2840 h1         1 CJR       0.036033
     22 H3          26.8530     5.8190   -18.0910 h1         1 CJR       0.036033
     23 H4          24.9100     7.7070   -17.1350 hn         1 CJR       0.503000
     24 H5          25.5640    10.4780   -13.7980 hn         1 CJR       0.481500
     25 H6          27.1410    11.0350   -13.3460 hn         1 CJR       0.481500
     26 H7          28.5830     7.6180   -17.5880 ha         1 CJR       0.126000
     27 H8          30.5070     8.5730   -18.2110 h1         1 CJR       0.056450
     28 H9          31.1500     7.3670   -17.0830 h1         1 CJR       0.056450
     29 H10         32.9770     8.3940   -18.3160 h1         1 CJR       0.043950
     30 H11         32.4120    10.0260   -17.9360 h1         1 CJR       0.043950
     31 H13         33.2490     9.7750   -14.2960 h1         1 CJR       0.043950
     32 H14         32.5750    10.8530   -15.5220 h1         1 CJR       0.043950
     33 H15         30.7760     9.9350   -14.1780 h1         1 CJR       0.056450
     34 H16         31.3280     8.2750   -14.4240 h1         1 CJR       0.056450
     35 H17         35.3290     9.4320   -15.5510 h1         1 CJR       0.074700
     36 H18         35.1090     8.6890   -18.5930 h1         1 CJR       0.054700
     37 H19         36.3370     8.1160   -17.3880 h1         1 CJR       0.054700
     38 H20         35.2500    11.7070   -16.5520 h1         1 CJR       0.054700
     39 H21         34.3680    11.1160   -18.0240 h1         1 CJR       0.054700
@<TRIPOS>BOND
     1     1     2 1   
     2     1    20 1   
     3     1    21 1   
     4     1    22 1   
     5     2     3 1   
     6     2    23 1   
     7     3     4 ar  
     8     3     9 ar  
     9     4     5 ar  
    10     5     6 1   
    11     5     7 ar  
    12     6    24 1   
    13     6    25 1   
    14     7     8 ar  
    15     8     9 ar  
    16     8    10 1   
    17     9    26 1   
    18    10    11 1   
    19    10    15 1   
    20    11    12 1   
    21    11    27 1   
    22    11    28 1   
    23    12    13 1   
    24    12    29 1   
    25    12    30 1   
    26    13    14 1   
    27    13    16 1   
    28    14    15 1   
    29    14    31 1   
    30    14    32 1   
    31    15    33 1   
    32    15    34 1   
    33    16    17 1   
    34    16    19 1   
    35    16    35 1   
    36    17    18 1   
    37    17    36 1   
    38    17    37 1   
    39    18    19 1   
    40    19    38 1   
    41    19    39 1   
@<TRIPOS>SUBSTRUCTURE
     1 CJR         1 TEMP              0 ****  ****    0 ROOT
