@<TRIPOS>MOLECULE
CJT
   60    63     1     0     0
SMALL
No Charge or Current Charge


@<TRIPOS>ATOM
      1 C1          -4.0140     1.5700    -0.2390 c6         1 CJT       0.182500
      2 C2          -3.8580     0.2290    -1.0310 c6         1 CJT      -0.071900
      3 C3          -2.4650    -0.4200    -0.8350 c6         1 CJT      -0.092400
      4 C7          -0.3990    -2.4870     0.4560 ca         1 CJT       0.436900
      5 C8          -0.8990    -4.6800     0.0090 ca         1 CJT       0.179900
      6 C9           1.3000    -4.0650    -0.1400 ca         1 CJT       0.150500
      7 C10          0.9500    -2.7820     0.2000 ca         1 CJT      -0.258800
      8 C11          2.1410    -1.9630     0.2350 cc         1 CJT      -0.097400
      9 C12          3.1800    -2.8290    -0.0950 cd         1 CJT      -0.179100
     10 C13          2.3090    -0.4760     0.5120 c6         1 CJT       0.007500
     11 C14          1.8180     0.3520    -0.7090 c6         1 CJT      -0.074900
     12 C15          1.8940     1.8740    -0.4280 c6         1 CJT      -0.066900
     13 C16          3.3240     2.2900     0.0110 c6         1 CJT      -0.144700
     14 C19          3.4710     3.8080     0.2480 c          1 CJT       0.605100
     15 O            2.8920     4.3980     1.1450 o          1 CJT      -0.604100
     16 N5           4.2820     4.4820    -0.5960 nt         1 CJT      -0.610000
     17 C17          3.8890     1.4310     1.1750 c6         1 CJT      -0.066900
     18 C18          3.7750    -0.0830     0.8580 c6         1 CJT      -0.074900
     19 N4           2.6660    -4.1260    -0.3270 na         1 CJT      -0.316400
     20 N3           0.3800    -5.0410    -0.2440 nb         1 CJT      -0.236000
     21 N2          -1.3370    -3.4490     0.3580 nb         1 CJT      -0.301000
     22 N1          -0.8080    -1.2130     0.8220 nu         1 CJT      -0.923100
     23 C4          -2.1650    -0.6710     0.6610 c6         1 CJT       0.238500
     24 C5          -2.2650     0.6580     1.4410 c6         1 CJT      -0.092400
     25 C6          -3.6560     1.3160     1.2630 c6         1 CJT      -0.071900
     26 N           -5.3890     2.1630    -0.3990 n3         1 CJT      -0.713600
     27 C           -5.7980     2.3680    -1.8130 c3         1 CJT       0.150100
     28 H1          -3.2740     2.2780    -0.6400 h1         1 CJT       0.019700
     29 H2          -4.6410    -0.4770    -0.7210 hc         1 CJT       0.050450
     30 H3          -3.9950     0.3960    -2.1060 hc         1 CJT       0.050450
     31 H4          -2.4230    -1.3660    -1.3930 hc         1 CJT       0.046450
     32 H5          -1.6960     0.2330    -1.2700 hc         1 CJT       0.046450
     33 H6          -1.6530    -5.4620    -0.0720 h5         1 CJT       0.043100
     34 H7           4.2420    -2.6190    -0.1930 h4         1 CJT       0.214000
     35 H8           1.6960    -0.2130     1.3840 hc         1 CJT       0.051700
     36 H9           2.4310     0.1090    -1.5880 hc         1 CJT       0.044200
     37 H10          0.7890     0.0810    -0.9770 hc         1 CJT       0.044200
     38 H11          1.5980     2.4330    -1.3270 hc         1 CJT       0.051450
     39 H12          1.1720     2.1400     0.3570 hc         1 CJT       0.051450
     40 H13          3.9690     2.0720    -0.8530 hc         1 CJT       0.053700
     41 H14         -4.8520     4.1670     0.1280 h1         1 CJT       0.030033
     42 H15         -6.5970     3.8310     0.1760 h1         1 CJT       0.030033
     43 H16         -5.5610     3.2200     1.4630 h1         1 CJT       0.030033
     44 H17          4.7600     3.9920    -1.3380 hn         1 CJT       0.312000
     45 H18          4.4040     5.4760    -0.4750 hn         1 CJT       0.312000
     46 H19          4.9400     1.6930     1.3630 hc         1 CJT       0.051450
     47 H20          3.3420     1.6550     2.1010 hc         1 CJT       0.051450
     48 H21          4.1280    -0.6660     1.7200 hc         1 CJT       0.044200
     49 H22          4.4420    -0.3220     0.0180 hc         1 CJT       0.044200
     50 H23          3.1940    -4.9540    -0.5860 hn         1 CJT       0.362000
     51 H24         -0.0430    -0.5480     0.8590 hn         1 CJT       0.493000
     52 H25         -2.9140    -1.3690     1.0700 h1         1 CJT       0.087700
     53 H26         -2.0790     0.4780     2.5090 hc         1 CJT       0.046450
     54 H27         -1.4860     1.3560     1.1010 hc         1 CJT       0.046450
     55 H28         -3.6480     2.2590     1.8240 hc         1 CJT       0.050450
     56 H29         -4.4260     0.6820     1.7250 hc         1 CJT       0.050450
     57 H31         -5.8970     1.4140    -2.3460 h1         1 CJT       0.030033
     58 H32         -6.7770     2.8620    -1.8670 h1         1 CJT       0.030033
     59 H33         -5.0700     2.9950    -2.3450 h1         1 CJT       0.030033
     60 C20         -5.6050     3.4090     0.3830 c3         1 CJT       0.150100
@<TRIPOS>BOND
     1     1     2 1   
     2     1    25 1   
     3     1    26 1   
     4     1    28 1   
     5     2     3 1   
     6     2    29 1   
     7     2    30 1   
     8     3    23 1   
     9     3    31 1   
    10     3    32 1   
    11     4     7 ar  
    12     4    21 ar  
    13     4    22 1   
    14     5    20 ar  
    15     5    21 ar  
    16     5    33 1   
    17     6     7 ar  
    18     6    19 1   
    19     6    20 ar  
    20     7     8 1   
    21     8     9 2   
    22     8    10 1   
    23     9    19 1   
    24     9    34 1   
    25    10    11 1   
    26    10    18 1   
    27    10    35 1   
    28    11    12 1   
    29    11    36 1   
    30    11    37 1   
    31    12    13 1   
    32    12    38 1   
    33    12    39 1   
    34    13    14 1   
    35    13    17 1   
    36    13    40 1   
    37    14    15 2   
    38    14    16 1   
    39    16    44 1   
    40    16    45 1   
    41    17    18 1   
    42    17    46 1   
    43    17    47 1   
    44    18    48 1   
    45    18    49 1   
    46    19    50 1   
    47    22    23 1   
    48    22    51 1   
    49    23    24 1   
    50    23    52 1   
    51    24    25 1   
    52    24    53 1   
    53    24    54 1   
    54    25    55 1   
    55    25    56 1   
    56    26    27 1   
    57    26    60 1   
    58    27    57 1   
    59    27    58 1   
    60    27    59 1   
    61    41    60 1   
    62    42    60 1   
    63    43    60 1   
@<TRIPOS>SUBSTRUCTURE
     1 CJT         1 TEMP              0 ****  ****    0 ROOT
