@<TRIPOS>MOLECULE
CJT
   60    63     1     0     0
SMALL
bcc


@<TRIPOS>ATOM
      1 C1          -4.3460     1.4860    -0.1980 c6         1 CJT       0.182500
      2 C2          -4.1170     0.2390    -1.0570 c6         1 CJT      -0.071900
      3 C3          -2.6720    -0.2450    -0.9940 c6         1 CJT      -0.092400
      4 C7          -0.4130    -2.2060     0.2720 ca         1 CJT       0.765200
      5 C8          -0.8890    -4.4210    -0.0950 ca         1 CJT       0.705900
      6 C9           1.2470    -3.8820     0.0170 ca         1 CJT       0.478800
      7 C10          0.9630    -2.5250     0.2190 ca         1 CJT      -0.389400
      8 C11          2.2170    -1.8320     0.3270 cc         1 CJT      -0.097400
      9 C12          3.1770    -2.7950     0.1900 cd         1 CJT      -0.129100
     10 C13          2.4400    -0.3580     0.4800 c6         1 CJT       0.007500
     11 C14          2.1120     0.3920    -0.8180 c6         1 CJT      -0.074900
     12 C15          2.2930     1.8970    -0.6650 c6         1 CJT      -0.066900
     13 C16          3.7160     2.2310    -0.2310 c6         1 CJT      -0.144700
     14 C19          3.9210     3.7210    -0.0310 c          1 CJT       0.672100
     15 O            3.0190     4.4710     0.3170 o          1 CJT      -0.604100
     16 N5           5.1780     4.1480    -0.2370 nt         1 CJT      -0.677000
     17 C17          4.0640     1.4870     1.0660 c6         1 CJT      -0.066900
     18 C18          3.8660    -0.0170     0.9120 c6         1 CJT      -0.074900
     19 N4           2.5900    -4.0240     0.0050 na         1 CJT      -0.266100
     20 N3           0.3500    -4.8610    -0.1430 nb         1 CJT      -0.762000
     21 N2          -1.3150    -3.1740     0.0960 nb         1 CJT      -0.827000
     22 N1          -0.8530    -0.9590     0.5150 nu         1 CJT      -0.867900
     23 C4          -2.2380    -0.5380     0.4370 c6         1 CJT       0.238500
     24 C5          -2.4470     0.6970     1.3000 c6         1 CJT      -0.092400
     25 C6          -3.8890     1.1880     1.2330 c6         1 CJT      -0.071900
     26 N           -5.7460     1.9110    -0.2290 n3         1 CJT      -0.713600
     27 C           -6.2240     2.1530    -1.5770 c3         1 CJT       0.150100
     28 H1          -3.7000     2.2930    -0.5990 h1         1 CJT       0.019700
     29 H2          -4.7910    -0.5540    -0.7150 hc         1 CJT       0.050450
     30 H3          -4.3620     0.4300    -2.1020 hc         1 CJT       0.050450
     31 H4          -2.5570    -1.1380    -1.6110 hc         1 CJT       0.046450
     32 H5          -2.0090     0.5200    -1.4150 hc         1 CJT       0.046450
     33 H6          -1.6700    -5.1640    -0.2290 h5         1 CJT       0.043100
     34 H7           4.2500    -2.7080     0.2060 h4         1 CJT       0.164000
     35 H8           1.7780     0.0170     1.2740 hc         1 CJT       0.051700
     36 H9           2.7650     0.0120    -1.6110 hc         1 CJT       0.044200
     37 H10          1.0910     0.1770    -1.1480 hc         1 CJT       0.044200
     38 H11          2.0550     2.3940    -1.6080 hc         1 CJT       0.051450
     39 H12          1.5850     2.2760     0.0770 hc         1 CJT       0.051450
     40 H13          4.4050     1.8840    -1.0100 hc         1 CJT       0.053700
     41 H14         -5.3710     3.9560     0.2790 h1         1 CJT       0.030033
     42 H15         -7.0320     3.3880     0.4860 h1         1 CJT       0.030033
     43 H16         -5.8030     2.9030     1.6350 h1         1 CJT       0.030033
     44 H17          5.9170     3.5130    -0.4820 hn         1 CJT       0.312000
     45 H18          5.4340     5.1020    -0.0390 hn         1 CJT       0.312000
     46 H19          5.0980     1.6900     1.3530 hc         1 CJT       0.051450
     47 H20          3.4320     1.8620     1.8780 hc         1 CJT       0.051450
     48 H21          4.1050    -0.5170     1.8530 hc         1 CJT       0.044200
     49 H22          4.5720    -0.3930     0.1640 hc         1 CJT       0.044200
     50 H23          3.0830    -4.8920    -0.1240 hn         1 CJT       0.311700
     51 H24         -0.1640    -0.2290     0.5870 hn         1 CJT       0.437800
     52 H25         -2.8530    -1.3500     0.8320 h1         1 CJT       0.087700
     53 H26         -2.1800     0.4810     2.3370 hc         1 CJT       0.046450
     54 H27         -1.7740     1.4960     0.9620 hc         1 CJT       0.046450
     55 H28         -3.9700     2.0710     1.8670 hc         1 CJT       0.050450
     56 H29         -4.5540     0.4300     1.6610 hc         1 CJT       0.050450
     57 H31         -6.2440     1.2390    -2.1670 h1         1 CJT       0.030033
     58 H32         -7.2480     2.5260    -1.5360 h1         1 CJT       0.030033
     59 H33         -5.6210     2.8960    -2.1240 h1         1 CJT       0.030033
     60 C20         -5.9860     3.0920     0.5790 c3         1 CJT       0.150100
@<TRIPOS>BOND
     1     1     2 1   
     2     1    25 1   
     3     1    26 1   
     4     1    28 1   
     5     2     3 1   
     6     2    29 1   
     7     2    30 1   
     8     3    23 1   
     9     3    31 1   
    10     3    32 1   
    11     4     7 ar  
    12     4    21 ar  
    13     4    22 1   
    14     5    20 ar  
    15     5    21 ar  
    16     5    33 1   
    17     6     7 ar  
    18     6    19 1   
    19     6    20 ar  
    20     7     8 1   
    21     8     9 2   
    22     8    10 1   
    23     9    19 1   
    24     9    34 1   
    25    10    11 1   
    26    10    18 1   
    27    10    35 1   
    28    11    12 1   
    29    11    36 1   
    30    11    37 1   
    31    12    13 1   
    32    12    38 1   
    33    12    39 1   
    34    13    14 1   
    35    13    17 1   
    36    13    40 1   
    37    14    15 2   
    38    14    16 1   
    39    16    44 1   
    40    16    45 1   
    41    17    18 1   
    42    17    46 1   
    43    17    47 1   
    44    18    48 1   
    45    18    49 1   
    46    19    50 1   
    47    22    23 1   
    48    22    51 1   
    49    23    24 1   
    50    23    52 1   
    51    24    25 1   
    52    24    53 1   
    53    24    54 1   
    54    25    55 1   
    55    25    56 1   
    56    26    27 1   
    57    26    60 1   
    58    27    57 1   
    59    27    58 1   
    60    27    59 1   
    61    41    60 1   
    62    42    60 1   
    63    43    60 1   
@<TRIPOS>SUBSTRUCTURE
     1 CJT         1 TEMP              0 ****  ****    0 ROOT
