@<TRIPOS>MOLECULE
CJU
   32    33     1     0     0
SMALL
No Charge or Current Charge


@<TRIPOS>ATOM
      1 C11         26.7360     7.4560   -18.9060 c3         1 CJU       0.226100
      2 C13         31.1880     9.7190   -14.3520 c6         1 CJU       0.227300
      3 C15         33.3800     8.6070   -15.0640 c6         1 CJU      -0.074400
      4 C16         32.5720     7.7400   -16.0560 c6         1 CJU      -0.094400
      5 C17         31.1170     7.5370   -15.5670 c6         1 CJU       0.227300
      6 C03         28.3900     8.4470   -16.5780 ca         1 CJU      -0.418000
      7 C04         29.0440     8.9440   -15.4460 ca         1 CJU       0.459900
      8 N05         28.3600     9.5480   -14.4580 nb         1 CJU      -0.362000
      9 C06         27.0400     9.6270   -14.6260 ca         1 CJU       0.432900
     10 N07         26.3530    10.2250   -13.6320 nv         1 CJU      -1.052900
     11 N08         26.3130     9.1820   -15.6520 nb         1 CJU      -0.355000
     12 C09         27.0050     8.5930   -16.6290 ca         1 CJU       0.437900
     13 N10         26.2540     8.1420   -17.6950 nu         1 CJU      -0.943100
     14 N12         30.4440     8.8450   -15.3110 nh         1 CJU      -0.789300
     15 C14         32.6480     9.9460   -14.8160 c6         1 CJU      -0.094400
     16 H1          25.8960     7.2200   -19.5730 h1         1 CJU       0.034367
     17 H2          27.4440     8.0930   -19.4520 h1         1 CJU       0.034367
     18 H3          27.2420     6.5180   -18.6400 h1         1 CJU       0.034367
     19 H4          30.7030    10.7030   -14.2640 h1         1 CJU       0.051950
     20 H5          31.1900     9.2620   -13.3500 h1         1 CJU       0.051950
     21 H6          33.5050     8.0690   -14.1130 hc         1 CJU       0.039700
     22 H7          34.3880     8.7940   -15.4580 hc         1 CJU       0.039700
     23 H8          33.0590     6.7650   -16.1850 hc         1 CJU       0.048700
     24 H9          32.5620     8.2190   -17.0450 hc         1 CJU       0.048700
     25 H10         30.5770     6.9480   -16.3220 h1         1 CJU       0.051950
     26 H11         31.1280     6.9380   -14.6440 h1         1 CJU       0.051950
     27 H12         28.9410     7.9850   -17.3860 ha         1 CJU       0.125000
     28 H13         25.3450    10.0990   -13.6060 hn         1 CJU       0.479000
     29 H14         26.8230    10.3660   -12.7420 hn         1 CJU       0.479000
     30 H15         25.2500     8.3110   -17.6140 hn         1 CJU       0.503000
     31 H16         33.1880    10.5360   -14.0640 hc         1 CJU       0.048700
     32 H17         32.6480    10.5420   -15.7390 hc         1 CJU       0.048700
@<TRIPOS>BOND
     1     1    13 1   
     2     1    16 1   
     3     1    17 1   
     4     1    18 1   
     5     2    14 1   
     6     2    15 1   
     7     2    19 1   
     8     2    20 1   
     9     3     4 1   
    10     3    15 1   
    11     3    21 1   
    12     3    22 1   
    13     4     5 1   
    14     4    23 1   
    15     4    24 1   
    16     5    14 1   
    17     5    25 1   
    18     5    26 1   
    19     6     7 ar  
    20     6    12 ar  
    21     6    27 1   
    22     7     8 ar  
    23     7    14 1   
    24     8     9 ar  
    25     9    10 1   
    26     9    11 ar  
    27    10    28 1   
    28    10    29 1   
    29    11    12 ar  
    30    12    13 1   
    31    13    30 1   
    32    15    31 1   
    33    15    32 1   
@<TRIPOS>SUBSTRUCTURE
     1 CJU         1 TEMP              0 ****  ****    0 ROOT
