@<TRIPOS>MOLECULE
CJU
   32    33     1     0     0
SMALL
bcc


@<TRIPOS>ATOM
      1 C11         26.7720     7.1790   -18.6280 c3         1 CJU       0.226100
      2 C13         31.0910     9.1100   -13.9930 c6         1 CJU       0.227300
      3 C15         33.2700     8.8060   -15.2080 c6         1 CJU      -0.074400
      4 C16         32.4890     8.1830   -16.3580 c6         1 CJU      -0.094400
      5 C17         31.1890     7.5620   -15.8610 c6         1 CJU       0.227300
      6 C03         28.3970     8.2110   -16.4640 ca         1 CJU      -0.566600
      7 C04         29.0920     8.7970   -15.3930 ca         1 CJU       0.788200
      8 N05         28.4800     9.6670   -14.5780 nb         1 CJU      -0.888000
      9 C06         27.2040     9.9440   -14.8290 ca         1 CJU       0.958900
     10 N07         26.6200    10.8670   -14.0180 nv         1 CJU      -0.942500
     11 N08         26.4500     9.4500   -15.8030 nb         1 CJU      -0.881000
     12 C09         27.0600     8.5800   -16.6220 ca         1 CJU       0.766200
     13 N10         26.2970     8.0770   -17.6120 nu         1 CJU      -0.887900
     14 N12         30.3950     8.5300   -15.1290 nh         1 CJU      -0.789300
     15 C14         32.3890     9.7750   -14.4310 c6         1 CJU      -0.094400
     16 H1          25.9520     6.9580   -19.3060 h1         1 CJU       0.034367
     17 H2          27.5880     7.6110   -19.2150 h1         1 CJU       0.034367
     18 H3          27.1250     6.2330   -18.2090 h1         1 CJU       0.034367
     19 H4          30.4340     9.8230   -13.5050 h1         1 CJU       0.051950
     20 H5          31.3100     8.3170   -13.2660 h1         1 CJU       0.051950
     21 H6          33.6200     8.0120   -14.5390 hc         1 CJU       0.039700
     22 H7          34.1630     9.3130   -15.5810 hc         1 CJU       0.039700
     23 H8          33.0820     7.4120   -16.8550 hc         1 CJU       0.048700
     24 H9          32.2590     8.9440   -17.1090 hc         1 CJU       0.048700
     25 H10         30.6310     7.1630   -16.7020 h1         1 CJU       0.051950
     26 H11         31.4160     6.7150   -15.2030 h1         1 CJU       0.051950
     27 H12         28.8530     7.5090   -17.1420 ha         1 CJU       0.143000
     28 H13         25.6150    10.9000   -14.0100 hn         1 CJU       0.423800
     29 H14         27.0670    11.0530   -13.1360 hn         1 CJU       0.423800
     30 H15         25.3580     8.4300   -17.6780 hn         1 CJU       0.447800
     31 H16         32.9110    10.1500   -13.5470 hc         1 CJU       0.048700
     32 H17         32.1510    10.6430   -15.0530 hc         1 CJU       0.048700
@<TRIPOS>BOND
     1     1    13 1   
     2     1    16 1   
     3     1    17 1   
     4     1    18 1   
     5     2    14 1   
     6     2    15 1   
     7     2    19 1   
     8     2    20 1   
     9     3     4 1   
    10     3    15 1   
    11     3    21 1   
    12     3    22 1   
    13     4     5 1   
    14     4    23 1   
    15     4    24 1   
    16     5    14 1   
    17     5    25 1   
    18     5    26 1   
    19     6     7 ar  
    20     6    12 ar  
    21     6    27 1   
    22     7     8 ar  
    23     7    14 1   
    24     8     9 ar  
    25     9    10 1   
    26     9    11 ar  
    27    10    28 1   
    28    10    29 1   
    29    11    12 ar  
    30    12    13 1   
    31    13    30 1   
    32    15    31 1   
    33    15    32 1   
@<TRIPOS>SUBSTRUCTURE
     1 CJU         1 TEMP              0 ****  ****    0 ROOT
