@<TRIPOS>MOLECULE
CJV
  105   110     1     0     0
SMALL
No Charge or Current Charge


@<TRIPOS>ATOM
      1 O1          -9.6250    -2.0120     1.0040 o          1 CJV      -0.532000
      2 C8          -8.9150    -2.8550     0.4770 c          1 CJV       0.639100
      3 O           -9.2100    -3.5410    -0.6620 os         1 CJV      -0.462100
      4 C9         -10.4390    -3.2200    -1.3360 c3         1 CJV       0.169900
      5 N           -7.6870    -3.2660     0.9250 ns         1 CJV      -0.497900
      6 C7          -7.1270    -2.6340     2.1220 c5         1 CJV       0.122700
      7 C10         -6.4390    -3.7960     2.8820 c5         1 CJV      -0.093400
      8 C11         -5.3560    -3.0650     3.7330 c5         1 CJV      -0.082400
      9 C12         -5.2110    -1.6490     3.0870 c5         1 CJV      -0.080400
     10 C6          -5.8840    -1.7900     1.6790 c5         1 CJV      -0.082700
     11 C5          -6.1390    -0.4310     0.8900 c3         1 CJV       0.087400
     12 C13         -7.1120     0.3370     1.7140 c1         1 CJV       0.303900
     13 N1          -7.8470     0.9510     2.3790 n1         1 CJV      -0.458000
     14 C4          -6.7490    -0.6810    -0.5350 ca         1 CJV      -0.047300
     15 C38         -7.7920     0.1290    -1.0690 ca         1 CJV      -0.129000
     16 C           -8.3190    -0.1160    -2.3460 ca         1 CJV       0.186000
     17 F           -9.3160     0.6630    -2.8180 f          1 CJV      -0.175000
     18 C1          -7.8210    -1.1560    -3.1370 ca         1 CJV      -0.148000
     19 C2          -6.7770    -1.9520    -2.6490 ca         1 CJV      -0.087000
     20 C3          -6.2460    -1.7130    -1.3700 ca         1 CJV      -0.125000
     21 C14         -4.8250     0.4590     0.7440 c6         1 CJV      -0.049700
     22 C15         -5.0440     1.8050    -0.0180 c6         1 CJV      -0.075900
     23 C16         -3.7520     2.6560    -0.0420 c6         1 CJV       0.166300
     24 C37         -3.6120    -0.2650     0.0820 c6         1 CJV      -0.075900
     25 C36         -2.3560     0.6390     0.0510 c6         1 CJV       0.166300
     26 N2          -2.6160     1.9220    -0.6600 n3         1 CJV      -0.717600
     27 C17         -1.4150     2.7870    -0.7940 c3         1 CJV       0.177800
     28 C18         -0.2680     2.2110    -1.6440 cy         1 CJV      -0.099700
     29 C19          0.8880     3.1980    -2.0260 cy         1 CJV       0.208800
     30 C35          0.8250     1.3530    -0.9160 cy         1 CJV       0.208800
     31 N3           1.6580     2.5840    -0.9140 nn         1 CJV      -0.812400
     32 C20          2.9290     2.8300    -0.4370 ca         1 CJV       0.398000
     33 C21          3.5480     1.9200     0.4340 ca         1 CJV      -0.216000
     34 C22          4.8410     2.1630     0.9240 ca         1 CJV       0.038500
     35 C34          3.6160     3.9950    -0.8140 ca         1 CJV      -0.216000
     36 C33          4.9090     4.2510    -0.3320 ca         1 CJV       0.038500
     37 C23          5.5240     3.3340     0.5410 ca         1 CJV      -0.356500
     38 S            7.1890     3.6530     1.1460 sy         1 CJV       1.087500
     39 O4           7.3550     5.1090     1.2480 o          1 CJV      -0.526000
     40 O3           7.4220     2.7920     2.3120 o          1 CJV      -0.526000
     41 C24          8.2540     3.0790    -0.2330 cy         1 CJV      -0.354700
     42 C25          8.2810     1.5450    -0.5090 cy         1 CJV       0.150500
     43 N4           9.5540     1.5100     0.2840 nj         1 CJV      -0.428800
     44 C32          9.7810     2.9780     0.0600 cy         1 CJV       0.150500
     45 C26         10.4380     0.9250    -0.6760 c          1 CJV       0.621100
     46 O2          10.7060     1.2170    -1.8400 o          1 CJV      -0.596100
     47 C27         11.1510    -0.3030    -0.0950 c3         1 CJV      -0.155400
     48 C28         10.3970    -1.6080    -0.4510 c3         1 CJV      -0.066400
     49 C29         11.0780    -2.8720     0.1220 c3         1 CJV       0.163800
     50 N5          10.3130    -4.1310    -0.0620 n3         1 CJV      -0.709600
     51 C30         10.0950    -4.5010    -1.4820 c3         1 CJV       0.149600
     52 C31         10.8920    -5.2500     0.7140 c3         1 CJV       0.149600
     53 H6         -10.5520    -3.8350    -2.2380 h1         1 CJV       0.047700
     54 H7         -11.3030    -3.4080    -0.6850 h1         1 CJV       0.047700
     55 H8         -10.4540    -2.1650    -1.6390 h1         1 CJV       0.047700
     56 H5          -7.2180    -3.9690     0.3720 hn         1 CJV       0.319500
     57 H1          -7.8450    -2.0880     2.7530 h1         1 CJV       0.096700
     58 H9          -7.1450    -4.3640     3.4990 hc         1 CJV       0.060700
     59 H10         -5.9610    -4.5130     2.2020 hc         1 CJV       0.060700
     60 H11         -5.6550    -2.9860     4.7850 hc         1 CJV       0.047700
     61 H12         -4.4080    -3.6150     3.7150 hc         1 CJV       0.047700
     62 H14         -5.7100    -0.8990     3.7140 hc         1 CJV       0.052200
     63 H13         -4.1600    -1.3480     3.0190 hc         1 CJV       0.052200
     64 H           -5.2240    -2.4060     1.0630 hc         1 CJV       0.057700
     65 H50         -8.2120     0.9630    -0.5160 ha         1 CJV       0.140000
     66 H2          -8.2360    -1.3360    -4.1250 ha         1 CJV       0.133000
     67 H3          -6.3750    -2.7560    -3.2620 ha         1 CJV       0.117000
     68 H4          -5.4290    -2.3490    -1.0450 ha         1 CJV       0.114000
     69 H15         -4.5180     0.7190     1.7680 hc         1 CJV       0.054700
     70 H16         -5.3560     1.6130    -1.0540 hc         1 CJV       0.056200
     71 H17         -5.8430     2.3980     0.4440 hc         1 CJV       0.056200
     72 H19         -3.9560     3.5810    -0.6010 h1         1 CJV       0.032700
     73 H18         -3.4990     2.9520     0.9880 h1         1 CJV       0.032700
     74 H49         -3.3590    -1.1860     0.6200 hc         1 CJV       0.056200
     75 H48         -3.8530    -0.5540    -0.9480 hc         1 CJV       0.056200
     76 H46         -2.0240     0.8340     1.0820 h1         1 CJV       0.032700
     77 H47         -1.5540     0.0780    -0.4480 h1         1 CJV       0.032700
     78 H21         -1.7110     3.7290    -1.2780 h1         1 CJV       0.037700
     79 H20         -1.0160     3.0490     0.1960 h1         1 CJV       0.037700
     80 H22         -0.7120     1.7190    -2.5140 hc         1 CJV       0.089700
     81 H23          1.3070     3.0220    -3.0250 h1         1 CJV       0.058200
     82 H24          0.6280     4.2570    -1.9040 h1         1 CJV       0.058200
     83 H44          0.5230     0.9830     0.0710 h1         1 CJV       0.058200
     84 H45          1.2210     0.5330    -1.5270 h1         1 CJV       0.058200
     85 H25          3.0280     1.0170     0.7360 ha         1 CJV       0.119500
     86 H26          5.3020     1.4400     1.5960 ha         1 CJV       0.133000
     87 H43          3.1490     4.7090    -1.4840 ha         1 CJV       0.119500
     88 H42          5.4260     5.1590    -0.6410 ha         1 CJV       0.133000
     89 H27          8.0170     3.6760    -1.1170 h1         1 CJV       0.113700
     90 H28          7.4690     0.9830    -0.0330 h1         1 CJV       0.065200
     91 H29          8.3330     1.2850    -1.5740 h1         1 CJV       0.065200
     92 H40         10.4200     3.2800    -0.7800 h1         1 CJV       0.065200
     93 H41         10.1030     3.4990     0.9690 h1         1 CJV       0.065200
     94 H30         12.1700    -0.3600    -0.4960 hc         1 CJV       0.057200
     95 H270        11.1740    -0.2280     0.9990 hc         1 CJV       0.057200
     96 H31          9.3720    -1.5500    -0.0660 hc         1 CJV       0.063700
     97 H52         10.3280    -1.6880    -1.5430 hc         1 CJV       0.063700
     98 H33         12.0740    -2.9710    -0.3310 h1         1 CJV       0.025700
     99 H32         11.2310    -2.7040     1.1970 h1         1 CJV       0.025700
    100 H34         11.0530    -4.6340    -2.0030 h1         1 CJV       0.030033
    101 H36          9.5330    -5.4420    -1.5540 h1         1 CJV       0.030033
    102 H35          9.5160    -3.7330    -2.0100 h1         1 CJV       0.030033
    103 H37         10.9650    -4.9890     1.7780 h1         1 CJV       0.030033
    104 H39         10.2650    -6.1480     0.6300 h1         1 CJV       0.030033
    105 H38         11.8990    -5.4990     0.3510 h1         1 CJV       0.030033
@<TRIPOS>BOND
     1     1     2 2   
     2     2     3 1   
     3     2     5 1   
     4     3     4 1   
     5     4    53 1   
     6     4    54 1   
     7     4    55 1   
     8     5     6 1   
     9     5    56 1   
    10     6     7 1   
    11     6    10 1   
    12     6    57 1   
    13     7     8 1   
    14     7    58 1   
    15     7    59 1   
    16     8     9 1   
    17     8    60 1   
    18     8    61 1   
    19     9    10 1   
    20     9    62 1   
    21     9    63 1   
    22    10    11 1   
    23    10    64 1   
    24    11    12 1   
    25    11    14 1   
    26    11    21 1   
    27    12    13 3   
    28    14    15 ar  
    29    14    20 ar  
    30    15    16 ar  
    31    15    65 1   
    32    16    17 1   
    33    16    18 ar  
    34    18    19 ar  
    35    18    66 1   
    36    19    20 ar  
    37    19    67 1   
    38    20    68 1   
    39    21    22 1   
    40    21    24 1   
    41    21    69 1   
    42    22    23 1   
    43    22    70 1   
    44    22    71 1   
    45    23    26 1   
    46    23    72 1   
    47    23    73 1   
    48    24    25 1   
    49    24    74 1   
    50    24    75 1   
    51    25    26 1   
    52    25    76 1   
    53    25    77 1   
    54    26    27 1   
    55    27    28 1   
    56    27    78 1   
    57    27    79 1   
    58    28    29 1   
    59    28    30 1   
    60    28    80 1   
    61    29    31 1   
    62    29    81 1   
    63    29    82 1   
    64    30    31 1   
    65    30    83 1   
    66    30    84 1   
    67    31    32 1   
    68    32    33 ar  
    69    32    35 ar  
    70    33    34 ar  
    71    33    85 1   
    72    34    37 ar  
    73    34    86 1   
    74    35    36 ar  
    75    35    87 1   
    76    36    37 ar  
    77    36    88 1   
    78    37    38 1   
    79    38    39 2   
    80    38    40 2   
    81    38    41 1   
    82    41    42 1   
    83    41    44 1   
    84    41    89 1   
    85    42    43 1   
    86    42    90 1   
    87    42    91 1   
    88    43    44 1   
    89    43    45 1   
    90    44    92 1   
    91    44    93 1   
    92    45    46 2   
    93    45    47 1   
    94    47    48 1   
    95    47    94 1   
    96    47    95 1   
    97    48    49 1   
    98    48    96 1   
    99    48    97 1   
   100    49    50 1   
   101    49    98 1   
   102    49    99 1   
   103    50    51 1   
   104    50    52 1   
   105    51   100 1   
   106    51   101 1   
   107    51   102 1   
   108    52   103 1   
   109    52   104 1   
   110    52   105 1   
@<TRIPOS>SUBSTRUCTURE
     1 CJV         1 TEMP              0 ****  ****    0 ROOT
