@<TRIPOS>MOLECULE
CJV
  105   110     1     0     0
SMALL
abcg2


@<TRIPOS>ATOM
      1 O1         -10.3160    -1.8270     0.1000 o          1 CJV      -0.532000
      2 C8          -9.4760    -2.6850    -0.0740 c          1 CJV       0.639100
      3 O           -9.5050    -3.5600    -1.0860 os         1 CJV      -0.462100
      4 C9         -10.5760    -3.4310    -2.0120 c3         1 CJV       0.169900
      5 N           -8.4090    -2.9120     0.7160 ns         1 CJV      -0.497900
      6 C7          -8.0190    -2.0370     1.7960 c5         1 CJV       0.122700
      7 C10         -7.8290    -2.7730     3.1400 c5         1 CJV      -0.093400
      8 C11         -6.3210    -2.8200     3.3690 c5         1 CJV      -0.082400
      9 C12         -5.8540    -1.4760     2.8180 c5         1 CJV      -0.080400
     10 C6          -6.6530    -1.3460     1.5190 c5         1 CJV      -0.082700
     11 C5          -6.7750     0.0880     0.9450 c3         1 CJV       0.087400
     12 C13         -7.5350     0.8600     1.9380 c1         1 CJV       0.303900
     13 N1          -8.1020     1.4500     2.7480 n1         1 CJV      -0.458000
     14 C4          -7.5220     0.0890    -0.3880 ca         1 CJV      -0.047300
     15 C38         -8.5550     0.9840    -0.6410 ca         1 CJV      -0.129000
     16 C           -9.1960     0.9560    -1.8640 ca         1 CJV       0.186000
     17 F          -10.1940     1.8290    -2.0780 f          1 CJV      -0.175000
     18 C1          -8.8550     0.0720    -2.8650 ca         1 CJV      -0.148000
     19 C2          -7.8210    -0.8170    -2.6090 ca         1 CJV      -0.087000
     20 C3          -7.1600    -0.8100    -1.3910 ca         1 CJV      -0.125000
     21 C14         -5.3870     0.7990     0.8410 c6         1 CJV      -0.049700
     22 C15         -5.4880     2.2240     0.3030 c6         1 CJV      -0.075900
     23 C16         -4.1260     2.8960     0.3390 c6         1 CJV       0.166300
     24 C37         -4.3450     0.0540     0.0150 c6         1 CJV      -0.075900
     25 C36         -3.0150     0.7950     0.0620 c6         1 CJV       0.166300
     26 N2          -3.1410     2.1550    -0.4270 n3         1 CJV      -0.717600
     27 C17         -1.8810     2.8670    -0.4570 c3         1 CJV       0.177800
     28 C18         -0.8470     2.2680    -1.3900 cy         1 CJV      -0.099700
     29 C19          0.4210     3.1330    -1.5670 cy         1 CJV       0.208800
     30 C35          0.0780     1.1510    -0.8470 cy         1 CJV       0.208800
     31 N3           1.2210     1.9830    -1.1830 nn         1 CJV      -0.812400
     32 C20          2.4750     1.9440    -0.7000 ca         1 CJV       0.398000
     33 C21          2.9520     0.8020    -0.0270 ca         1 CJV      -0.216000
     34 C22          4.2390     0.7650     0.4630 ca         1 CJV       0.038500
     35 C34          3.3410     3.0450    -0.8620 ca         1 CJV      -0.216000
     36 C33          4.6240     3.0020    -0.3680 ca         1 CJV       0.038500
     37 C23          5.0810     1.8630     0.2960 ca         1 CJV      -0.356500
     38 S            6.7180     1.8230     0.9100 sy         1 CJV       1.087500
     39 O4           7.1340     3.1770     1.2760 o          1 CJV      -0.526000
     40 O3           6.8230     0.7630     1.9130 o          1 CJV      -0.526000
     41 C24          7.7210     1.3490    -0.4920 cy         1 CJV      -0.354700
     42 C25          7.6220    -0.1330    -0.9070 cy         1 CJV       0.150500
     43 N4           8.9910    -0.2930    -0.4580 nj         1 CJV      -0.428800
     44 C32          9.1930     1.0990    -0.0980 cy         1 CJV       0.150500
     45 C26          9.8120    -1.3470    -0.5570 c          1 CJV       0.621100
     46 O2           9.4180    -2.4190    -0.9940 o          1 CJV      -0.596100
     47 C27         11.2230    -1.0940    -0.0780 c3         1 CJV      -0.155400
     48 C28         12.1570    -2.2780    -0.2730 c3         1 CJV      -0.066400
     49 C29         13.5590    -1.9340     0.2120 c3         1 CJV       0.163800
     50 N5          14.4920    -3.0420     0.1340 n3         1 CJV      -0.709600
     51 C30         14.8030    -3.4120    -1.2300 c3         1 CJV       0.149600
     52 C31         15.7050    -2.7450     0.8660 c3         1 CJV       0.149600
     53 H6         -10.4230    -4.2090    -2.7540 h1         1 CJV       0.047700
     54 H7         -11.5460    -3.5780    -1.5360 h1         1 CJV       0.047700
     55 H8         -10.5640    -2.4590    -2.5060 h1         1 CJV       0.047700
     56 H5          -7.7680    -3.6420     0.4450 hn         1 CJV       0.319500
     57 H1          -8.8160    -1.3010     1.8930 h1         1 CJV       0.096700
     58 H9          -8.3000    -2.1920     3.9360 hc         1 CJV       0.060700
     59 H10         -8.3040    -3.7540     3.1320 hc         1 CJV       0.060700
     60 H11         -6.0530    -2.9690     4.4150 hc         1 CJV       0.047700
     61 H12         -5.8710    -3.6350     2.7960 hc         1 CJV       0.047700
     62 H14         -6.0980    -0.6790     3.5280 hc         1 CJV       0.052200
     63 H13         -4.7770    -1.4380     2.6460 hc         1 CJV       0.052200
     64 H           -6.1320    -1.9500     0.7730 hc         1 CJV       0.057700
     65 H50         -8.8830     1.7040     0.0980 ha         1 CJV       0.140000
     66 H2          -9.3810     0.0710    -3.8110 ha         1 CJV       0.133000
     67 H3          -7.5290    -1.5290    -3.3690 ha         1 CJV       0.117000
     68 H4          -6.3660    -1.5260    -1.2340 ha         1 CJV       0.114000
     69 H15         -5.0050     0.8640     1.8680 hc         1 CJV       0.054700
     70 H16         -5.8590     2.2110    -0.7250 hc         1 CJV       0.056200
     71 H17         -6.1850     2.8240     0.8930 hc         1 CJV       0.056200
     72 H19         -4.2100     3.9020    -0.0810 h1         1 CJV       0.032700
     73 H18         -3.8110     3.0190     1.3910 h1         1 CJV       0.032700
     74 H49         -4.1780    -0.9600     0.3850 hc         1 CJV       0.056200
     75 H48         -4.6690    -0.0260    -1.0260 hc         1 CJV       0.056200
     76 H46         -2.6230     0.7670     1.0950 h1         1 CJV       0.032700
     77 H47         -2.3010     0.2510    -0.5600 h1         1 CJV       0.032700
     78 H21         -2.0880     3.8840    -0.8030 h1         1 CJV       0.037700
     79 H20         -1.4380     2.9680     0.5510 h1         1 CJV       0.037700
     80 H22         -1.3070     2.0040    -2.3430 hc         1 CJV       0.089700
     81 H23          0.6140     3.5090    -2.5740 h1         1 CJV       0.058200
     82 H24          0.4930     3.9680    -0.8610 h1         1 CJV       0.058200
     83 H44         -0.0230     0.9670     0.2280 h1         1 CJV       0.058200
     84 H45          0.0450     0.1940    -1.3730 h1         1 CJV       0.058200
     85 H25          2.3030    -0.0520     0.1150 ha         1 CJV       0.119500
     86 H26          4.5790    -0.1170     0.9880 ha         1 CJV       0.133000
     87 H43          2.9950     3.9360    -1.3710 ha         1 CJV       0.119500
     88 H42          5.2670     3.8640    -0.4940 ha         1 CJV       0.133000
     89 H27          7.5630     2.0800    -1.2820 h1         1 CJV       0.113700
     90 H28          6.8940    -0.7450    -0.3720 h1         1 CJV       0.065200
     91 H29          7.4860    -0.2780    -1.9790 h1         1 CJV       0.065200
     92 H40          9.9050     1.6310    -0.7290 h1         1 CJV       0.065200
     93 H41          9.4560     1.2680     0.9490 h1         1 CJV       0.065200
     94 H30         11.6180    -0.2150    -0.5990 hc         1 CJV       0.057200
     95 H270        11.1850    -0.8110     0.9790 hc         1 CJV       0.057200
     96 H31         11.7920    -3.1460     0.2790 hc         1 CJV       0.063700
     97 H52         12.1710    -2.5560    -1.3290 hc         1 CJV       0.063700
     98 H33         13.9320    -1.0520    -0.3410 h1         1 CJV       0.025700
     99 H32         13.4950    -1.6280     1.2610 h1         1 CJV       0.025700
    100 H34         15.2580    -2.5910    -1.8070 h1         1 CJV       0.030033
    101 H36         15.5010    -4.2500    -1.2380 h1         1 CJV       0.030033
    102 H35         13.9090    -3.7350    -1.7640 h1         1 CJV       0.030033
    103 H37         15.4740    -2.5370     1.9110 h1         1 CJV       0.030033
    104 H39         16.3780    -3.6040     0.8380 h1         1 CJV       0.030033
    105 H38         16.2550    -1.8790     0.4650 h1         1 CJV       0.030033
@<TRIPOS>BOND
     1     1     2 2   
     2     2     3 1   
     3     2     5 1   
     4     3     4 1   
     5     4    53 1   
     6     4    54 1   
     7     4    55 1   
     8     5     6 1   
     9     5    56 1   
    10     6     7 1   
    11     6    10 1   
    12     6    57 1   
    13     7     8 1   
    14     7    58 1   
    15     7    59 1   
    16     8     9 1   
    17     8    60 1   
    18     8    61 1   
    19     9    10 1   
    20     9    62 1   
    21     9    63 1   
    22    10    11 1   
    23    10    64 1   
    24    11    12 1   
    25    11    14 1   
    26    11    21 1   
    27    12    13 3   
    28    14    15 ar  
    29    14    20 ar  
    30    15    16 ar  
    31    15    65 1   
    32    16    17 1   
    33    16    18 ar  
    34    18    19 ar  
    35    18    66 1   
    36    19    20 ar  
    37    19    67 1   
    38    20    68 1   
    39    21    22 1   
    40    21    24 1   
    41    21    69 1   
    42    22    23 1   
    43    22    70 1   
    44    22    71 1   
    45    23    26 1   
    46    23    72 1   
    47    23    73 1   
    48    24    25 1   
    49    24    74 1   
    50    24    75 1   
    51    25    26 1   
    52    25    76 1   
    53    25    77 1   
    54    26    27 1   
    55    27    28 1   
    56    27    78 1   
    57    27    79 1   
    58    28    29 1   
    59    28    30 1   
    60    28    80 1   
    61    29    31 1   
    62    29    81 1   
    63    29    82 1   
    64    30    31 1   
    65    30    83 1   
    66    30    84 1   
    67    31    32 1   
    68    32    33 ar  
    69    32    35 ar  
    70    33    34 ar  
    71    33    85 1   
    72    34    37 ar  
    73    34    86 1   
    74    35    36 ar  
    75    35    87 1   
    76    36    37 ar  
    77    36    88 1   
    78    37    38 1   
    79    38    39 2   
    80    38    40 2   
    81    38    41 1   
    82    41    42 1   
    83    41    44 1   
    84    41    89 1   
    85    42    43 1   
    86    42    90 1   
    87    42    91 1   
    88    43    44 1   
    89    43    45 1   
    90    44    92 1   
    91    44    93 1   
    92    45    46 2   
    93    45    47 1   
    94    47    48 1   
    95    47    94 1   
    96    47    95 1   
    97    48    49 1   
    98    48    96 1   
    99    48    97 1   
   100    49    50 1   
   101    49    98 1   
   102    49    99 1   
   103    50    51 1   
   104    50    52 1   
   105    51   100 1   
   106    51   101 1   
   107    51   102 1   
   108    52   103 1   
   109    52   104 1   
   110    52   105 1   
@<TRIPOS>SUBSTRUCTURE
     1 CJV         1 TEMP              0 ****  ****    0 ROOT
