@<TRIPOS>MOLECULE
CJW
   47    50     1     0     0
SMALL
No Charge or Current Charge


@<TRIPOS>ATOM
      1 O5          -4.2820    -0.7100     0.8520 os         1 CJW      -0.410000
      2 C5          -5.6990    -0.4530     0.6630 c6         1 CJW       0.168300
      3 C4          -6.0460    -0.5210    -0.8570 c6         1 CJW       0.142300
      4 C3          -5.1480     0.4840    -1.6340 c6         1 CJW       0.101300
      5 C2          -3.6450     0.2090    -1.3430 c6         1 CJW       0.114300
      6 C1          -3.4000     0.2460     0.2020 c6         1 CJW       0.151000
      7 C18         -1.9390    -0.0390     0.5210 cc         1 CJW       0.417800
      8 O2          -2.8250     1.1710    -2.0430 oh         1 CJW      -0.719000
      9 O3          -5.4050     0.4130    -3.0470 oh         1 CJW      -0.668000
     10 O4          -7.4290    -0.2240    -1.1200 oh         1 CJW      -0.721000
     11 C6          -6.5030    -1.4950     1.5080 c3         1 CJW       0.172600
     12 O6          -6.1350    -1.5030     2.9040 oh         1 CJW      -0.709000
     13 N5          -0.8690     0.4630    -0.0760 nd         1 CJW      -0.684000
     14 C17          0.2010    -0.1080     0.5900 cd         1 CJW       0.615500
     15 N3          -0.1460    -0.9380     1.5650 nc         1 CJW      -0.537800
     16 N2          -1.5090    -0.8840     1.5090 na         1 CJW      -0.180700
     17 C19          1.6110     0.1830     0.2400 ca         1 CJW      -0.161500
     18 C11          1.9270     1.0820    -0.8050 ca         1 CJW      -0.104000
     19 C10          3.2640     1.3580    -1.1370 ca         1 CJW      -0.105000
     20 C9           4.3120     0.7410    -0.4320 ca         1 CJW      -0.032000
     21 C8           4.0130    -0.1570     0.6120 ca         1 CJW      -0.058000
     22 C7           2.6730    -0.4330     0.9440 ca         1 CJW      -0.058000
     23 C15          5.6520     1.0160    -0.7630 ca         1 CJW      -0.100000
     24 C14          6.7150     0.4000    -0.0590 ca         1 CJW      -0.122600
     25 C13          6.3980    -0.5000     0.9860 ca         1 CJW      -0.063000
     26 C12          5.0600    -0.7750     1.3180 ca         1 CJW      -0.148000
     27 C16          8.1630     0.6960    -0.4170 c          1 CJW       0.711600
     28 O18          9.0490     0.1400     0.2180 o          1 CJW      -0.717000
     29 O17          8.3940     1.4800    -1.3270 o          1 CJW      -0.717000
     30 H1          -5.9300     0.5520     1.0470 h1         1 CJW       0.055700
     31 H2          -5.8110    -1.5360    -1.2120 h1         1 CJW       0.061700
     32 H3          -5.3790     1.4980    -1.2710 h1         1 CJW       0.048700
     33 H4          -3.4060    -0.8090    -1.6910 h1         1 CJW       0.084700
     34 H5          -3.6520     1.2480     0.5780 h1         1 CJW       0.044700
     35 H6          -1.9250     1.1150    -1.6240 ho         1 CJW       0.517000
     36 H7          -4.6160     0.8310    -3.4650 ho         1 CJW       0.453000
     37 H8          -7.4470     0.0400    -2.0720 ho         1 CJW       0.521000
     38 H9          -7.5730    -1.2690     1.4040 h1         1 CJW       0.037200
     39 H10         -6.3360    -2.4890     1.0700 h1         1 CJW       0.037200
     40 H11         -6.6630    -2.2150     3.3360 ho         1 CJW       0.503000
     41 H13          1.1360     1.5750    -1.3670 ha         1 CJW       0.114000
     42 H14          3.4830     2.0530    -1.9440 ha         1 CJW       0.107000
     43 H15          2.4620    -1.1290     1.7520 ha         1 CJW       0.112000
     44 H16          5.8670     1.7120    -1.5720 ha         1 CJW       0.132000
     45 H17          7.1910    -0.9900     1.5470 ha         1 CJW       0.130000
     46 H18          4.8420    -1.4700     2.1250 ha         1 CJW       0.092000
     47 H12         -2.1130    -1.4150     2.1310 hn         1 CJW       0.371000
@<TRIPOS>BOND
     1     1     2 1   
     2     1     6 1   
     3     2     3 1   
     4     2    11 1   
     5     2    30 1   
     6     3     4 1   
     7     3    10 1   
     8     3    31 1   
     9     4     5 1   
    10     4     9 1   
    11     4    32 1   
    12     5     6 1   
    13     5     8 1   
    14     5    33 1   
    15     6     7 1   
    16     6    34 1   
    17     7    13 2   
    18     7    16 1   
    19     8    35 1   
    20     9    36 1   
    21    10    37 1   
    22    11    12 1   
    23    11    38 1   
    24    11    39 1   
    25    12    40 1   
    26    13    14 1   
    27    14    15 2   
    28    14    17 1   
    29    15    16 1   
    30    16    47 1   
    31    17    18 ar  
    32    17    22 ar  
    33    18    19 ar  
    34    18    41 1   
    35    19    20 ar  
    36    19    42 1   
    37    20    21 ar  
    38    20    23 ar  
    39    21    22 ar  
    40    21    26 ar  
    41    22    43 1   
    42    23    24 ar  
    43    23    44 1   
    44    24    25 ar  
    45    24    27 1   
    46    25    26 ar  
    47    25    45 1   
    48    26    46 1   
    49    27    28 1   
    50    27    29 1   
@<TRIPOS>SUBSTRUCTURE
     1 CJW         1 TEMP              0 ****  ****    0 ROOT
