@<TRIPOS>MOLECULE
CJW
   47    50     1     0     0
SMALL
abcg2


@<TRIPOS>ATOM
      1 O5          -3.8070    -0.9080     0.3590 os         1 CJW      -0.410000
      2 C5          -5.1910    -1.0970     0.1280 c6         1 CJW       0.168300
      3 C4          -5.6280    -0.2870    -1.0940 c6         1 CJW       0.142300
      4 C3          -5.2620     1.1800    -0.8950 c6         1 CJW       0.101300
      5 C2          -3.7810     1.3160    -0.5630 c6         1 CJW       0.114300
      6 C1          -3.4690     0.4260     0.6390 c6         1 CJW       0.151000
      7 C18         -2.0160     0.4720     0.9650 cc         1 CJW       0.417800
      8 O2          -3.4350     2.6350    -0.2200 oh         1 CJW      -0.719000
      9 O3          -5.6020     1.8690    -2.0770 oh         1 CJW      -0.668000
     10 O4          -7.0140    -0.4540    -1.2560 oh         1 CJW      -0.721000
     11 C6          -5.4250    -2.5800    -0.0640 c3         1 CJW       0.172600
     12 O6          -5.0980    -3.2500     1.1300 oh         1 CJW      -0.709000
     13 N5          -1.0260     0.1190     0.1770 nd         1 CJW      -0.684000
     14 C17          0.0760     0.3680     0.9210 cd         1 CJW       0.615500
     15 N3          -0.1910     0.8530     2.1170 nc         1 CJW      -0.537800
     16 N2          -1.5190     0.9070     2.1230 na         1 CJW      -0.180700
     17 C19          1.4380     0.1330     0.4410 ca         1 CJW      -0.161500
     18 C11          1.6390    -0.4210    -0.8470 ca         1 CJW      -0.104000
     19 C10          2.9020    -0.6440    -1.3180 ca         1 CJW      -0.105000
     20 C9           4.0380    -0.3250    -0.5370 ca         1 CJW      -0.032000
     21 C8           3.8400     0.2290     0.7540 ca         1 CJW      -0.058000
     22 C7           2.5270     0.4460     1.2190 ca         1 CJW      -0.058000
     23 C15          5.3550    -0.5370    -1.0020 ca         1 CJW      -0.100000
     24 C14          6.4460    -0.2170    -0.2340 ca         1 CJW      -0.122600
     25 C13          6.2370     0.3330     1.0530 ca         1 CJW      -0.063000
     26 C12          4.9770     0.5500     1.5350 ca         1 CJW      -0.148000
     27 C16          7.8610    -0.4460    -0.7540 c          1 CJW       0.711600
     28 O18          8.7900    -0.1200     0.0100 o          1 CJW      -0.717000
     29 O17          7.9670    -0.9360    -1.8940 o          1 CJW      -0.717000
     30 H1          -5.7660    -0.7510     1.0030 h1         1 CJW       0.055700
     31 H2          -5.0790    -0.6660    -1.9720 h1         1 CJW       0.061700
     32 H3          -5.8430     1.5620    -0.0410 h1         1 CJW       0.048700
     33 H4          -3.1880     0.9570    -1.4150 h1         1 CJW       0.084700
     34 H5          -4.0340     0.7970     1.5090 h1         1 CJW       0.044700
     35 H6          -3.1670     3.1030    -1.0150 ho         1 CJW       0.517000
     36 H7          -5.7300     2.7990    -1.8680 ho         1 CJW       0.453000
     37 H8          -7.2930     0.0890    -2.0010 ho         1 CJW       0.521000
     38 H9          -6.4730    -2.7300    -0.3400 h1         1 CJW       0.037200
     39 H10         -4.8160    -2.9290    -0.9090 h1         1 CJW       0.037200
     40 H11         -5.2810    -4.1850     1.0060 ho         1 CJW       0.503000
     41 H13          0.7810    -0.6660    -1.4570 ha         1 CJW       0.114000
     42 H14          3.0450    -1.0690    -2.3040 ha         1 CJW       0.107000
     43 H15          2.3870     0.8720     2.2060 ha         1 CJW       0.112000
     44 H16          5.5000    -0.9580    -1.9890 ha         1 CJW       0.132000
     45 H17          7.0970     0.5840     1.6600 ha         1 CJW       0.130000
     46 H18          4.8320     0.9740     2.5220 ha         1 CJW       0.092000
     47 H12         -2.0160     1.2470     2.9330 hn         1 CJW       0.371000
@<TRIPOS>BOND
     1     1     2 1   
     2     1     6 1   
     3     2     3 1   
     4     2    11 1   
     5     2    30 1   
     6     3     4 1   
     7     3    10 1   
     8     3    31 1   
     9     4     5 1   
    10     4     9 1   
    11     4    32 1   
    12     5     6 1   
    13     5     8 1   
    14     5    33 1   
    15     6     7 1   
    16     6    34 1   
    17     7    13 2   
    18     7    16 1   
    19     8    35 1   
    20     9    36 1   
    21    10    37 1   
    22    11    12 1   
    23    11    38 1   
    24    11    39 1   
    25    12    40 1   
    26    13    14 1   
    27    14    15 2   
    28    14    17 1   
    29    15    16 1   
    30    16    47 1   
    31    17    18 ar  
    32    17    22 ar  
    33    18    19 ar  
    34    18    41 1   
    35    19    20 ar  
    36    19    42 1   
    37    20    21 ar  
    38    20    23 ar  
    39    21    22 ar  
    40    21    26 ar  
    41    22    43 1   
    42    23    24 ar  
    43    23    44 1   
    44    24    25 ar  
    45    24    27 1   
    46    25    26 ar  
    47    25    45 1   
    48    26    46 1   
    49    27    28 1   
    50    27    29 1   
@<TRIPOS>SUBSTRUCTURE
     1 CJW         1 TEMP              0 ****  ****    0 ROOT
