@<TRIPOS>MOLECULE
CJX
   68    70     1     0     0
SMALL
bcc


@<TRIPOS>ATOM
      1 C4          48.4750    -3.9360    20.8120 c6         1 CJX       0.127100
      2 C5          49.3000    -3.5900    22.0600 c6         1 CJX       0.117100
      3 C6          50.2710    -2.4470    21.8580 c3         1 CJX       0.139400
      4 C3          47.4830    -5.0360    21.1570 c6         1 CJX       0.139100
      5 O2          45.6990    -5.5850    22.6750 oh         1 CJX      -0.642800
      6 C2          46.6380    -4.5980    22.3540 c6         1 CJX       0.098100
      7 O3          46.6760    -5.2840    20.0300 oh         1 CJX      -0.588800
      8 O4          49.3140    -4.3930    19.7760 oh         1 CJX      -0.583800
      9 O6          49.5780    -1.2940    21.4420 oh         1 CJX      -0.592800
     10 O5          48.4530    -3.2390    23.1430 os         1 CJX      -0.399600
     11 C1          47.5470    -4.2280    23.5270 c6         1 CJX       0.319900
     12 O1          48.1940    -5.3800    23.9740 os         1 CJX      -0.425600
     13 CBG         48.2710    -5.6050    25.3630 c6         1 CJX       0.171100
     14 CBA         49.6830    -6.0640    25.7030 c6         1 CJX       0.134100
     15 OAK         50.5700    -5.0340    25.3570 oh         1 CJX      -0.605800
     16 CAT         47.2450    -6.6580    25.7770 c6         1 CJX       0.128500
     17 NAC         45.9090    -6.2330    25.3760 n8         1 CJX      -0.891800
     18 CAN         47.3810    -6.9440    27.2680 c6         1 CJX      -0.114400
     19 CAS         48.7710    -7.4540    27.6240 c6         1 CJX       0.168500
     20 NAB         48.8640    -7.6680    29.0600 n8         1 CJX      -0.884800
     21 CBF         49.8120    -6.4330    27.1860 c6         1 CJX       0.127100
     22 OAQ         51.1000    -6.9910    27.4040 os         1 CJX      -0.451600
     23 CBD         52.1160    -6.1710    27.8930 c6         1 CJX       0.347900
     24 OAO         52.3670    -6.4070    29.2440 os         1 CJX      -0.393600
     25 CBB         52.8580    -7.7000    29.5710 c6         1 CJX       0.130100
     26 CAL         53.0000    -7.7700    31.0840 c3         1 CJX       0.149800
     27 NAA         54.0080    -6.8570    31.6020 n8         1 CJX      -0.877800
     28 CAW         54.1650    -7.9700    28.8210 c6         1 CJX       0.079100
     29 OAG         54.6140    -9.2910    29.0290 oh         1 CJX      -0.602800
     30 CAU         53.9530    -7.7900    27.3240 c6         1 CJX       0.118100
     31 OAE         55.1570    -7.8900    26.6020 oh         1 CJX      -0.605800
     32 CAY         53.3820    -6.4040    27.0650 c6         1 CJX       0.129100
     33 OAI         53.0590    -6.2160    25.7050 oh         1 CJX      -0.607800
     34 H1          47.9070    -3.0500    20.4980 h1         1 CJX       0.064700
     35 H2          49.9090    -4.4680    22.3190 h1         1 CJX       0.068700
     36 H3          50.8070    -2.2820    22.8020 h1         1 CJX       0.030200
     37 H4          51.0250    -2.7600    21.1250 h1         1 CJX       0.030200
     38 H5          48.0460    -5.9400    21.4350 h1         1 CJX       0.056700
     39 H6          45.7820    -5.8430    23.6290 ho         1 CJX       0.457000
     40 H7          46.1140    -3.6730    22.0670 h1         1 CJX       0.064700
     41 H8          46.0260    -5.9490    20.2820 ho         1 CJX       0.417000
     42 H9          49.6880    -3.6320    19.3230 ho         1 CJX       0.404000
     43 H10         50.2240    -0.6130    21.2350 ho         1 CJX       0.400000
     44 H11         46.9530    -3.7790    24.3320 h2         1 CJX       0.068700
     45 H12         48.0590    -4.6750    25.9130 h1         1 CJX       0.050700
     46 H13         49.8870    -6.9770    25.1190 h1         1 CJX       0.054700
     47 H14         51.4720    -5.3940    25.3380 ho         1 CJX       0.439000
     48 H15         47.4650    -7.5770    25.2220 h1         1 CJX       0.078700
     49 H16         45.2470    -6.9790    25.5550 hn         1 CJX       0.351300
     50 H17         45.6050    -5.4490    25.9450 hn         1 CJX       0.351300
     51 H19         47.1680    -6.0320    27.8380 hc         1 CJX       0.052700
     52 H20         46.6330    -7.6840    27.5660 hc         1 CJX       0.052700
     53 H21         48.9470    -8.3770    27.0460 h1         1 CJX       0.031700
     54 H22         48.1670    -8.3480    29.3380 hn         1 CJX       0.344800
     55 H23         49.7570    -8.0910    29.2830 hn         1 CJX       0.344800
     56 H25         49.6830    -5.5260    27.7960 h1         1 CJX       0.067700
     57 H26         51.8270    -5.1160    27.8320 h2         1 CJX       0.092700
     58 H27         52.1300    -8.4720    29.2820 h1         1 CJX       0.052700
     59 H28         52.0330    -7.5030    31.5170 h1         1 CJX       0.042200
     60 H29         53.1680    -8.8190    31.3590 h1         1 CJX       0.042200
     61 H30         53.8310    -6.6860    32.5830 hn         1 CJX       0.337300
     62 H31         54.9230    -7.2870    31.5650 hn         1 CJX       0.337300
     63 H33         54.9190    -7.2380    29.1450 h1         1 CJX       0.063700
     64 H34         55.1310    -9.3260    29.8390 ho         1 CJX       0.408000
     65 H35         53.2280    -8.5440    26.9810 h1         1 CJX       0.068700
     66 H36         55.4990    -8.7830    26.7140 ho         1 CJX       0.424000
     67 H37         54.1200    -5.6580    27.3900 h1         1 CJX       0.059700
     68 H38         53.8700    -6.1220    25.1940 ho         1 CJX       0.433000
@<TRIPOS>BOND
     1     1     2 1   
     2     1     4 1   
     3     1     8 1   
     4     1    34 1   
     5     2     3 1   
     6     2    10 1   
     7     2    35 1   
     8     3     9 1   
     9     3    36 1   
    10     3    37 1   
    11     4     6 1   
    12     4     7 1   
    13     4    38 1   
    14     5     6 1   
    15     5    39 1   
    16     6    11 1   
    17     6    40 1   
    18     7    41 1   
    19     8    42 1   
    20     9    43 1   
    21    10    11 1   
    22    11    12 1   
    23    11    44 1   
    24    12    13 1   
    25    13    14 1   
    26    13    16 1   
    27    13    45 1   
    28    14    15 1   
    29    14    21 1   
    30    14    46 1   
    31    15    47 1   
    32    16    17 1   
    33    16    18 1   
    34    16    48 1   
    35    17    49 1   
    36    17    50 1   
    37    18    19 1   
    38    18    51 1   
    39    18    52 1   
    40    19    20 1   
    41    19    21 1   
    42    19    53 1   
    43    20    54 1   
    44    20    55 1   
    45    21    22 1   
    46    21    56 1   
    47    22    23 1   
    48    23    24 1   
    49    23    32 1   
    50    23    57 1   
    51    24    25 1   
    52    25    26 1   
    53    25    28 1   
    54    25    58 1   
    55    26    27 1   
    56    26    59 1   
    57    26    60 1   
    58    27    61 1   
    59    27    62 1   
    60    28    29 1   
    61    28    30 1   
    62    28    63 1   
    63    29    64 1   
    64    30    31 1   
    65    30    32 1   
    66    30    65 1   
    67    31    66 1   
    68    32    33 1   
    69    32    67 1   
    70    33    68 1   
@<TRIPOS>SUBSTRUCTURE
     1 CJX         1 TEMP              0 ****  ****    0 ROOT
