@<TRIPOS>MOLECULE
CJX
   68    70     1     0     0
SMALL
No Charge or Current Charge


@<TRIPOS>ATOM
      1 C4          48.3250    -3.6290    20.6410 c6         1 CJX       0.150300
      2 C5          49.2130    -3.2340    21.8650 c6         1 CJX       0.140300
      3 C6          50.0410    -1.9280    21.6190 c3         1 CJX       0.162600
      4 C3          47.4700    -4.8780    21.0060 c6         1 CJX       0.162300
      5 O2          45.8590    -5.7960    22.6280 oh         1 CJX      -0.765000
      6 C2          46.6360    -4.6170    22.2920 c6         1 CJX       0.121300
      7 O3          46.5970    -5.2390    19.9210 oh         1 CJX      -0.651000
      8 O4          49.1150    -3.9110    19.4660 oh         1 CJX      -0.706000
      9 O6          49.2310    -0.7420    21.4790 oh         1 CJX      -0.715000
     10 O5          48.3860    -3.0260    23.0430 os         1 CJX      -0.446000
     11 C1          47.5980    -4.1660    23.4460 c6         1 CJX       0.366300
     12 O1          48.4820    -5.2320    23.8550 os         1 CJX      -0.472000
     13 CBG         48.4660    -5.5750    25.2670 c6         1 CJX       0.194300
     14 CBA         49.8330    -6.2250    25.6760 c6         1 CJX       0.157300
     15 OAK         50.9450    -5.3660    25.3280 oh         1 CJX      -0.728000
     16 CAT         47.2700    -6.5410    25.6140 c6         1 CJX       0.128500
     17 NAC         45.9230    -5.9900    25.2910 n8         1 CJX      -1.002200
     18 CAN         47.2870    -6.9330    27.1100 c6         1 CJX      -0.114400
     19 CAS         48.6400    -7.5660    27.5090 c6         1 CJX       0.168500
     20 NAB         48.6150    -7.9490    28.9380 n8         1 CJX      -0.995200
     21 CBF         49.8340    -6.6060    27.1990 c6         1 CJX       0.150300
     22 OAQ         51.0780    -7.2350    27.6210 os         1 CJX      -0.498000
     23 CBD         52.1830    -6.3470    27.9170 c6         1 CJX       0.394300
     24 OAO         52.4700    -6.4090    29.3310 os         1 CJX      -0.440000
     25 CBB         52.9670    -7.6900    29.8060 c6         1 CJX       0.153300
     26 CAL         53.1260    -7.5880    31.3660 c3         1 CJX       0.149800
     27 NAA         54.0750    -6.5550    31.8730 n8         1 CJX      -0.988200
     28 CAW         54.2870    -8.0760    29.0570 c6         1 CJX       0.102300
     29 OAG         54.7870    -9.3760    29.4510 oh         1 CJX      -0.725000
     30 CAU         54.0130    -8.0730    27.5250 c6         1 CJX       0.141300
     31 OAE         55.2160    -8.3980    26.8050 oh         1 CJX      -0.668000
     32 CAY         53.4570    -6.6960    27.0710 c6         1 CJX       0.152300
     33 OAI         53.2050    -6.7230    25.6440 oh         1 CJX      -0.730000
     34 H1          47.6390    -2.7930    20.4350 h1         1 CJX       0.064700
     35 H2          49.9250    -4.0480    22.0700 h1         1 CJX       0.068700
     36 H3          50.7300    -1.8090    22.4660 h1         1 CJX       0.030200
     37 H4          50.6610    -2.0720    20.7240 h1         1 CJX       0.030200
     38 H5          48.1580    -5.7110    21.2160 h1         1 CJX       0.056700
     39 H6          45.9150    -5.8910    23.6340 ho         1 CJX       0.556000
     40 H7          45.9570    -3.7730    22.0940 h1         1 CJX       0.064700
     41 H8          45.8970    -5.7860    20.3490 ho         1 CJX       0.456000
     42 H9          48.5100    -4.4140    18.8700 ho         1 CJX       0.503000
     43 H10         49.8510     0.0200    21.3960 ho         1 CJX       0.499000
     44 H11         46.9750    -3.8560    24.2980 h2         1 CJX       0.068700
     45 H12         48.3550    -4.6480    25.8490 h1         1 CJX       0.050700
     46 H13         49.9230    -7.1640    25.1090 h1         1 CJX       0.054700
     47 H14         51.7720    -5.9300    25.3960 ho         1 CJX       0.538000
     48 H15         47.3980    -7.4570    25.0150 h1         1 CJX       0.078700
     49 H16         45.2150    -6.6830    25.5780 hn         1 CJX       0.406500
     50 H17         45.7250    -5.2120    25.9360 hn         1 CJX       0.406500
     51 H19         47.0940    -6.0470    27.7320 hc         1 CJX       0.052700
     52 H20         46.4750    -7.6450    27.3160 hc         1 CJX       0.052700
     53 H21         48.7910    -8.4910    26.9320 h1         1 CJX       0.031700
     54 H22         48.1860    -8.8770    29.0250 hn         1 CJX       0.400000
     55 H23         49.5910    -8.1060    29.2190 hn         1 CJX       0.400000
     56 H25         49.6850    -5.6910    27.7930 h1         1 CJX       0.067700
     57 H26         51.8990    -5.3110    27.6770 h2         1 CJX       0.092700
     58 H27         52.2050    -8.4570    29.6030 h1         1 CJX       0.052700
     59 H28         52.1340    -7.3720    31.7880 h1         1 CJX       0.042200
     60 H29         53.4350    -8.5690    31.7530 h1         1 CJX       0.042200
     61 H30         54.1020    -6.5960    32.8990 hn         1 CJX       0.392500
     62 H31         55.0330    -6.7950    31.5950 hn         1 CJX       0.392500
     63 H33         55.0420    -7.3020    29.2680 h1         1 CJX       0.063700
     64 H34         55.1990    -9.2820    30.3420 ho         1 CJX       0.507000
     65 H35         53.2440    -8.8350    27.3220 h1         1 CJX       0.068700
     66 H36         55.6400    -9.1080    27.3430 ho         1 CJX       0.463000
     67 H37         54.2170    -5.9320    27.2940 h1         1 CJX       0.059700
     68 H38         53.9570    -7.2550    25.2770 ho         1 CJX       0.532000
@<TRIPOS>BOND
     1     1     2 1   
     2     1     4 1   
     3     1     8 1   
     4     1    34 1   
     5     2     3 1   
     6     2    10 1   
     7     2    35 1   
     8     3     9 1   
     9     3    36 1   
    10     3    37 1   
    11     4     6 1   
    12     4     7 1   
    13     4    38 1   
    14     5     6 1   
    15     5    39 1   
    16     6    11 1   
    17     6    40 1   
    18     7    41 1   
    19     8    42 1   
    20     9    43 1   
    21    10    11 1   
    22    11    12 1   
    23    11    44 1   
    24    12    13 1   
    25    13    14 1   
    26    13    16 1   
    27    13    45 1   
    28    14    15 1   
    29    14    21 1   
    30    14    46 1   
    31    15    47 1   
    32    16    17 1   
    33    16    18 1   
    34    16    48 1   
    35    17    49 1   
    36    17    50 1   
    37    18    19 1   
    38    18    51 1   
    39    18    52 1   
    40    19    20 1   
    41    19    21 1   
    42    19    53 1   
    43    20    54 1   
    44    20    55 1   
    45    21    22 1   
    46    21    56 1   
    47    22    23 1   
    48    23    24 1   
    49    23    32 1   
    50    23    57 1   
    51    24    25 1   
    52    25    26 1   
    53    25    28 1   
    54    25    58 1   
    55    26    27 1   
    56    26    59 1   
    57    26    60 1   
    58    27    61 1   
    59    27    62 1   
    60    28    29 1   
    61    28    30 1   
    62    28    63 1   
    63    29    64 1   
    64    30    31 1   
    65    30    32 1   
    66    30    65 1   
    67    31    66 1   
    68    32    33 1   
    69    32    67 1   
    70    33    68 1   
@<TRIPOS>SUBSTRUCTURE
     1 CJX         1 TEMP              0 ****  ****    0 ROOT
