@<TRIPOS>MOLECULE
CJY
   44    47     1     0     0
SMALL
abcg2


@<TRIPOS>ATOM
      1 C4           5.6300     2.8910     0.2400 ca         1 CJY      -0.126000
      2 C5          -4.8990    -0.3080    -2.4060 ca         1 CJY      -0.058000
      3 C6          -6.6100     0.4330     0.7980 ca         1 CJY      -0.122000
      4 C7          -3.9480     0.4500     1.6280 ca         1 CJY      -0.056000
      5 C8           3.5820     2.2460    -0.8880 ca         1 CJY      -0.073000
      6 C10          5.7740     1.6390     0.8060 ca         1 CJY      -0.129000
      7 C13         -4.2420     0.1920     0.2690 ca         1 CJY      -0.065000
      8 C15          2.9110    -0.2240    -0.4150 cc         1 CJY      -0.171400
      9 C17         -3.2170    -0.0610    -0.6940 ca         1 CJY       0.187100
     10 C20         -0.8750    -0.2620    -1.0930 c3         1 CJY       0.162600
     11 C1          -6.3000     0.6780     2.1080 ca         1 CJY      -0.099000
     12 C2          -4.9550     0.6870     2.5260 ca         1 CJY      -0.140000
     13 C3           4.5440     3.1940    -0.6010 ca         1 CJY      -0.164000
     14 C9          -5.9040    -0.0710    -1.5140 ca         1 CJY      -0.163000
     15 C11         -3.5460    -0.3060    -2.0060 ca         1 CJY      -0.233000
     16 C12         -5.5950     0.1840    -0.1550 ca         1 CJY      -0.002000
     17 C14          3.6990     0.9670    -0.3300 ca         1 CJY      -0.093800
     18 C16          4.7990     0.6840     0.5140 ca         1 CJY      -0.066200
     19 C23          3.5410    -1.1620     0.3700 cd         1 CJY      -0.077300
     20 C18          1.6350    -0.3550    -1.1790 c3         1 CJY       0.027800
     21 C19          0.4060    -0.1400    -0.2960 c3         1 CJY      -0.081400
     22 N22          4.6720    -0.6060     0.9150 na         1 CJY      -0.196700
     23 O25          4.0010    -3.1860     1.4320 o          1 CJY      -0.711500
     24 O26          2.1540    -3.0450     0.1820 o          1 CJY      -0.711500
     25 O21         -1.9660    -0.0360    -0.2130 os         1 CJY      -0.342100
     26 H1           6.3670     3.6560     0.4490 ha         1 CJY       0.087000
     27 H4          -2.9200     0.4620     1.9640 ha         1 CJY       0.136000
     28 H5           2.7480     2.4910    -1.5360 ha         1 CJY       0.098000
     29 H6           6.6120     1.4110     1.4530 ha         1 CJY       0.099000
     30 H7          -0.8910     0.4690    -1.9100 h1         1 CJY       0.032200
     31 H8          -0.9510    -1.2590    -1.5420 h1         1 CJY       0.032200
     32 H9          -7.0870     0.8670     2.8270 ha         1 CJY       0.102000
     33 H10         -4.7160     0.8810     3.5640 ha         1 CJY       0.109000
     34 H11          4.4660     4.1860    -1.0260 ha         1 CJY       0.088000
     35 H12         -6.9400    -0.0780    -1.8310 ha         1 CJY       0.105000
     36 H13         -2.7850    -0.4990    -2.7500 ha         1 CJY       0.121000
     37 H14          1.6270     0.3760    -1.9940 hc         1 CJY       0.038700
     38 H15          1.5750    -1.3410    -1.6410 hc         1 CJY       0.038700
     39 H16          0.4540     0.8480     0.1710 hc         1 CJY       0.063700
     40 H17          0.4150    -0.8820     0.5060 hc         1 CJY       0.063700
     41 H18          5.2920    -1.1120     1.5250 hn         1 CJY       0.364000
     42 C24          3.1970    -2.5900     0.6860 c          1 CJY       0.724200
     43 H2          -5.1290    -0.5020    -3.4460 ha         1 CJY       0.102000
     44 H3          -7.6430     0.4260     0.4730 ha         1 CJY       0.104000
@<TRIPOS>BOND
     1     1     6 ar  
     2     1    13 ar  
     3     1    26 1   
     4     2    14 ar  
     5     2    15 ar  
     6     2    43 1   
     7     3    11 ar  
     8     3    16 ar  
     9     3    44 1   
    10     4     7 ar  
    11     4    12 ar  
    12     4    27 1   
    13     5    13 ar  
    14     5    17 ar  
    15     5    28 1   
    16     6    18 ar  
    17     6    29 1   
    18     7     9 ar  
    19     7    16 ar  
    20     8    17 1   
    21     8    19 2   
    22     8    20 1   
    23     9    15 ar  
    24     9    25 1   
    25    10    21 1   
    26    10    25 1   
    27    10    30 1   
    28    10    31 1   
    29    11    12 ar  
    30    11    32 1   
    31    12    33 1   
    32    13    34 1   
    33    14    16 ar  
    34    14    35 1   
    35    15    36 1   
    36    17    18 ar  
    37    18    22 1   
    38    19    22 1   
    39    19    42 1   
    40    20    21 1   
    41    20    37 1   
    42    20    38 1   
    43    21    39 1   
    44    21    40 1   
    45    22    41 1   
    46    23    42 1   
    47    24    42 1   
@<TRIPOS>SUBSTRUCTURE
     1 CJY         1 TEMP              0 ****  ****    0 ROOT
