@<TRIPOS>MOLECULE
CJY
   44    47     1     0     0
SMALL
No Charge or Current Charge


@<TRIPOS>ATOM
      1 C4           5.3810     3.0200     0.4240 ca         1 CJY      -0.126000
      2 C5          -4.9560    -0.4100    -2.3880 ca         1 CJY      -0.058000
      3 C6          -6.6200     0.5860     0.7850 ca         1 CJY      -0.122000
      4 C7          -3.9260     0.6270     1.5870 ca         1 CJY      -0.056000
      5 C8           3.3690     2.1940    -0.7040 ca         1 CJY      -0.073000
      6 C10          5.6760     1.7170     0.8760 ca         1 CJY      -0.129000
      7 C13         -4.2510     0.2780     0.2560 ca         1 CJY      -0.065000
      8 C15          3.0090    -0.3450    -0.4240 cc         1 CJY      -0.171400
      9 C17         -3.2430    -0.0510    -0.6820 ca         1 CJY       0.187100
     10 C20         -0.8350    -0.3440    -1.1640 c3         1 CJY       0.162600
     11 C1          -6.2870     0.9310     2.1050 ca         1 CJY      -0.099000
     12 C2          -4.9410     0.9510     2.5040 ca         1 CJY      -0.140000
     13 C3           4.2310     3.2580    -0.3640 ca         1 CJY      -0.164000
     14 C9          -5.9550    -0.0840    -1.4580 ca         1 CJY      -0.163000
     15 C11         -3.6060    -0.3950    -2.0040 ca         1 CJY      -0.233000
     16 C12         -5.6100     0.2600    -0.1400 ca         1 CJY      -0.002000
     17 C14          3.6920     0.9080    -0.2390 ca         1 CJY      -0.093800
     18 C16          4.8010     0.6800     0.5210 ca         1 CJY      -0.066200
     19 C23          3.7640    -1.2990     0.2850 cd         1 CJY      -0.077300
     20 C18          1.7280    -0.5090    -1.2110 c3         1 CJY       0.027800
     21 C19          0.4740    -0.2070    -0.3660 c3         1 CJY      -0.081400
     22 N22          4.8920    -0.6540     0.8590 na         1 CJY      -0.196700
     23 O25          4.2530    -3.4330     1.1030 o          1 CJY      -0.711500
     24 O26          2.4540    -3.2530    -0.0440 o          1 CJY      -0.711500
     25 O21         -1.9200    -0.0280    -0.2770 os         1 CJY      -0.342100
     26 H1           6.0410     3.8450     0.6820 ha         1 CJY       0.087000
     27 H4          -2.8900     0.6490     1.9180 ha         1 CJY       0.136000
     28 H5           2.4810     2.3690    -1.3060 ha         1 CJY       0.098000
     29 H6           6.5570     1.5240     1.4840 ha         1 CJY       0.099000
     30 H7          -0.8180     0.3470    -2.0170 h1         1 CJY       0.032200
     31 H8          -0.9280    -1.3710    -1.5420 h1         1 CJY       0.032200
     32 H9          -7.0700     1.1820     2.8160 ha         1 CJY       0.102000
     33 H10         -4.6820     1.2180     3.5270 ha         1 CJY       0.109000
     34 H11          4.0080     4.2650    -0.7080 ha         1 CJY       0.088000
     35 H12         -6.9980    -0.0990    -1.7660 ha         1 CJY       0.105000
     36 H13         -2.8570    -0.6520    -2.7470 ha         1 CJY       0.121000
     37 H14          1.7440     0.1740    -2.0690 hc         1 CJY       0.038700
     38 H15          1.6530    -1.5110    -1.6460 hc         1 CJY       0.038700
     39 H16          0.5460     0.8110     0.0350 hc         1 CJY       0.063700
     40 H17          0.4460    -0.8910     0.4910 hc         1 CJY       0.063700
     41 H18          5.6090    -1.0970     1.4240 hn         1 CJY       0.364000
     42 C24          3.4610    -2.7650     0.4500 c          1 CJY       0.724200
     43 H2          -5.2300    -0.6750    -3.4070 ha         1 CJY       0.102000
     44 H3          -7.6640     0.5720     0.4820 ha         1 CJY       0.104000
@<TRIPOS>BOND
     1     1     6 ar  
     2     1    13 ar  
     3     1    26 1   
     4     2    14 ar  
     5     2    15 ar  
     6     2    43 1   
     7     3    11 ar  
     8     3    16 ar  
     9     3    44 1   
    10     4     7 ar  
    11     4    12 ar  
    12     4    27 1   
    13     5    13 ar  
    14     5    17 ar  
    15     5    28 1   
    16     6    18 ar  
    17     6    29 1   
    18     7     9 ar  
    19     7    16 ar  
    20     8    17 1   
    21     8    19 2   
    22     8    20 1   
    23     9    15 ar  
    24     9    25 1   
    25    10    21 1   
    26    10    25 1   
    27    10    30 1   
    28    10    31 1   
    29    11    12 ar  
    30    11    32 1   
    31    12    33 1   
    32    13    34 1   
    33    14    16 ar  
    34    14    35 1   
    35    15    36 1   
    36    17    18 ar  
    37    18    22 1   
    38    19    22 1   
    39    19    42 1   
    40    20    21 1   
    41    20    37 1   
    42    20    38 1   
    43    21    39 1   
    44    21    40 1   
    45    22    41 1   
    46    23    42 1   
    47    24    42 1   
@<TRIPOS>SUBSTRUCTURE
     1 CJY         1 TEMP              0 ****  ****    0 ROOT
