@<TRIPOS>MOLECULE
CJZ
   27    28     1     0     0
SMALL
bcc


@<TRIPOS>ATOM
      1 OAA         -2.1100    -1.2030     2.1630 o          1 CJZ      -0.811300
      2 OAB         -1.4270     0.9200     2.1230 o          1 CJZ      -0.811300
      3 OAC          3.8370    -1.2350     0.4800 oh         1 CJZ      -0.485100
      4 CLAD         4.0930     1.7430     0.1800 cl         1 CJZ      -0.128900
      5 CLAE         1.5540    -2.9800     0.2680 cl         1 CJZ      -0.128900
      6 CAF         -4.2590     0.6490    -1.9690 ca         1 CJZ      -0.136000
      7 CAG         -4.7710    -0.1440    -0.9520 ca         1 CJZ      -0.176000
      8 CAH         -2.9660     1.1360    -1.8760 ca         1 CJZ      -0.207000
      9 CAI         -3.9850    -0.4080     0.1600 ca         1 CJZ      -0.092000
     10 CAJ          1.4460     1.4670    -0.2530 ca         1 CJZ      -0.135000
     11 CAK          0.3160    -0.6450    -0.2320 ca         1 CJZ      -0.135000
     12 CAM         -2.0020    -0.0750     1.6470 c          1 CJZ       0.921200
     13 CAN          0.2630     0.7400    -0.3880 ca         1 CJZ       0.213600
     14 CAO          2.6340     0.8180     0.0240 ca         1 CJZ       0.008900
     15 CAP          1.5150    -1.2630     0.0690 ca         1 CJZ       0.008900
     16 CAQ          2.7110    -0.5620     0.2010 ca         1 CJZ       0.091100
     17 CAR         -2.1800     0.8860    -0.7470 ca         1 CJZ       0.160600
     18 CAS         -2.7050     0.1240     0.3080 ca         1 CJZ      -0.146600
     19 HOAC         4.5930    -0.6360     0.5190 ho         1 CJZ       0.424000
     20 HAF         -4.8540     0.8720    -2.8460 ha         1 CJZ       0.103000
     21 HAG         -5.7710    -0.5520    -1.0230 ha         1 CJZ       0.108000
     22 HAH         -2.5500     1.7180    -2.6900 ha         1 CJZ       0.102000
     23 HAI         -4.3840    -1.0210     0.9580 ha         1 CJZ       0.143000
     24 HAJ          1.4370     2.5430    -0.3660 ha         1 CJZ       0.160000
     25 HAK         -0.5700    -1.2540    -0.3440 ha         1 CJZ       0.160000
     26 HNAL        -0.7530     2.2120    -1.3310 hn         1 CJZ       0.410800
     27 NAL         -0.8940     1.4230    -0.7210 nu         1 CJZ      -0.621000
@<TRIPOS>BOND
     1     1    12 1   
     2     2    12 1   
     3     3    16 1   
     4     3    19 1   
     5     4    14 1   
     6     5    15 1   
     7     6     7 ar  
     8     6     8 ar  
     9     6    20 1   
    10     7     9 ar  
    11     7    21 1   
    12     8    17 ar  
    13     8    22 1   
    14     9    18 ar  
    15     9    23 1   
    16    10    13 ar  
    17    10    14 ar  
    18    10    24 1   
    19    11    13 ar  
    20    11    15 ar  
    21    11    25 1   
    22    12    18 1   
    23    13    27 1   
    24    14    16 ar  
    25    15    16 ar  
    26    17    18 ar  
    27    17    27 1   
    28    26    27 1   
@<TRIPOS>SUBSTRUCTURE
     1 CJZ         1 TEMP              0 ****  ****    0 ROOT
