@<TRIPOS>MOLECULE
CJZ
   27    28     1     0     0
SMALL
No Charge or Current Charge


@<TRIPOS>ATOM
      1 OAA         -1.9200    -1.2880     1.9500 o          1 CJZ      -0.706000
      2 OAB         -1.6220     0.8260     2.2320 o          1 CJZ      -0.706000
      3 OAC          3.9970    -1.1210     0.6050 oh         1 CJZ      -0.524100
      4 ClAD         4.0990     1.8810     0.3260 cl         1 CJZ      -0.220500
      5 ClAE         1.7320    -3.1120     0.2160 cl         1 CJZ      -0.220500
      6 CAF         -4.3560     0.7060    -1.9580 ca         1 CJZ      -0.118000
      7 CAG         -4.9110     0.0100    -0.8760 ca         1 CJZ      -0.158000
      8 CAH         -3.0110     1.1060    -1.9130 ca         1 CJZ      -0.189000
      9 CAI         -4.1250    -0.2700     0.2540 ca         1 CJZ      -0.074000
     10 CAJ          1.4690     1.4260    -0.2840 ca         1 CJZ      -0.117000
     11 CAK          0.4330    -0.7670    -0.3260 ca         1 CJZ      -0.117000
     12 CAM         -2.0010    -0.1290     1.5680 c          1 CJZ       0.710600
     13 CAN          0.3320     0.6260    -0.4750 ca         1 CJZ       0.352000
     14 CAO          2.6930     0.8440     0.0820 ca         1 CJZ       0.100500
     15 CAP          1.6540    -1.3570     0.0380 ca         1 CJZ       0.100500
     16 CAQ          2.7970    -0.5540     0.2490 ca         1 CJZ       0.091100
     17 CAR         -2.2070     0.8120    -0.7980 ca         1 CJZ       0.299000
     18 CAS         -2.7730     0.1350     0.3090 ca         1 CJZ      -0.146600
     19 HOAC         4.6600    -0.4030     0.7010 ho         1 CJZ       0.463000
     20 HAF         -4.9640     0.9320    -2.8310 ha         1 CJZ       0.085000
     21 HAG         -5.9520    -0.3030    -0.9050 ha         1 CJZ       0.090000
     22 HAH         -2.5880     1.6350    -2.7630 ha         1 CJZ       0.084000
     23 HAI         -4.5690    -0.7930     1.0990 ha         1 CJZ       0.125000
     24 HAJ          1.4020     2.5020    -0.4090 ha         1 CJZ       0.142000
     25 HAK         -0.4320    -1.3970    -0.5030 ha         1 CJZ       0.142000
     26 HNAL        -0.7460     2.1000    -1.3680 hn         1 CJZ       0.466000
     27 NAL         -0.8720     1.2260    -0.8570 nu         1 CJZ      -0.953000
@<TRIPOS>BOND
     1     1    12 1   
     2     2    12 1   
     3     3    16 1   
     4     3    19 1   
     5     4    14 1   
     6     5    15 1   
     7     6     7 ar  
     8     6     8 ar  
     9     6    20 1   
    10     7     9 ar  
    11     7    21 1   
    12     8    17 ar  
    13     8    22 1   
    14     9    18 ar  
    15     9    23 1   
    16    10    13 ar  
    17    10    14 ar  
    18    10    24 1   
    19    11    13 ar  
    20    11    15 ar  
    21    11    25 1   
    22    12    18 1   
    23    13    27 1   
    24    14    16 ar  
    25    15    16 ar  
    26    17    18 ar  
    27    17    27 1   
    28    26    27 1   
@<TRIPOS>SUBSTRUCTURE
     1 CJZ         1 TEMP              0 ****  ****    0 ROOT
