@<TRIPOS>MOLECULE
CK0
   69    71     1     0     0
SMALL
abcg2


@<TRIPOS>ATOM
      1 C4          48.0760     3.6330     1.2110 c6         1 CK0       0.121300
      2 C5          48.9860     3.6700    -0.0160 c6         1 CK0       0.182300
      3 C6          50.1250     2.6750     0.0200 c3         1 CK0       0.171600
      4 C3          46.9490     4.6450     1.0190 c6         1 CK0       0.094300
      5 O2          45.2000     5.2670    -0.5540 oh         1 CK0      -0.714000
      6 C2          46.2160     4.3390    -0.2790 c6         1 CK0       0.153300
      7 O3          46.0040     4.5770     2.0690 oh         1 CK0      -0.672000
      8 O4          48.8640     3.9330     2.3380 oh         1 CK0      -0.721000
      9 O6          49.6180     1.3690     0.1480 oh         1 CK0      -0.711000
     10 O5          48.2300     3.4120    -1.1880 os         1 CK0      -0.452000
     11 C1          47.1890     4.3060    -1.4560 c6         1 CK0       0.390300
     12 O1          47.6470     5.5960    -1.7120 os         1 CK0      -0.488000
     13 CBG         47.9970     5.9020    -3.0540 c6         1 CK0       0.153300
     14 CBA         49.4050     6.4980    -3.0790 c6         1 CK0       0.148300
     15 OAK         50.3540     5.5800    -2.5900 oh         1 CK0      -0.724000
     16 CAT         46.9790     6.8690    -3.6460 c6         1 CK0       0.153500
     17 NAC         45.6620     6.2550    -3.6670 n8         1 CK0      -1.008200
     18 CAN         47.3990     7.2280    -5.0640 c6         1 CK0      -0.081400
     19 CAS         48.7880     7.8500    -5.1230 c6         1 CK0       0.163500
     20 NAB         49.0800     8.2490    -6.4880 n8         1 CK0      -0.993200
     21 CBF         49.8020     6.8790    -4.5060 c6         1 CK0       0.137300
     22 OAQ         51.0860     7.4770    -4.4980 os         1 CK0      -0.493000
     23 CBD         52.1590     6.6750    -4.8900 c6         1 CK0       0.356300
     24 OAO         52.3170     6.6430    -6.2820 os         1 CK0      -0.459000
     25 CBB         52.7160     7.8540    -6.9050 c6         1 CK0       0.178300
     26 CAL         52.7390     7.6170    -8.4070 c3         1 CK0       0.162800
     27 NAA         53.7740     6.6810    -8.8150 n8         1 CK0      -0.992200
     28 CAX         54.0480     8.3290    -6.3280 c6         1 CK0       0.144300
     29 OAH         54.3930     9.5280    -6.9790 oh         1 CK0      -0.722000
     30 CAV         53.8870     8.5050    -4.8280 c6         1 CK0       0.140300
     31 OAF         55.1110     8.9120    -4.2680 oh         1 CK0      -0.671000
     32 CAU         53.4360     7.1830    -4.2130 c6         1 CK0       0.104500
     33 NAD         53.3810     7.3270    -2.7720 n8         1 CK0      -1.009200
     34 H1          47.6310     2.6320     1.2970 h1         1 CK0       0.072700
     35 H2          49.4460     4.6670    -0.0600 h1         1 CK0       0.044700
     36 H3          50.7880     2.9440     0.8500 h1         1 CK0       0.034700
     37 H4          50.7110     2.7970    -0.9020 h1         1 CK0       0.034700
     38 H5          47.3860     5.6520     0.9590 h1         1 CK0       0.063700
     39 H6          44.5920     5.2670     0.1930 ho         1 CK0       0.522000
     40 H7          45.8010     3.3220    -0.1990 h1         1 CK0       0.060700
     41 H8          46.2270     5.2310     2.7370 ho         1 CK0       0.452000
     42 H9          48.3460     3.7520     3.1280 ho         1 CK0       0.512000
     43 H10         50.3610     0.7690     0.2510 ho         1 CK0       0.504000
     44 H11         46.6810     3.8990    -2.3380 h2         1 CK0       0.099700
     45 H12         47.9950     4.9870    -3.6640 h1         1 CK0       0.070700
     46 H13         49.4040     7.4170    -2.4740 h1         1 CK0       0.048700
     47 H14         50.4190     5.6790    -1.6370 ho         1 CK0       0.510000
     48 H15         47.0070     7.7930    -3.0440 h1         1 CK0       0.027700
     49 H16         45.3220     6.1360    -2.7210 hn         1 CK0       0.410000
     50 H17         45.0100     6.8890    -4.1140 hn         1 CK0       0.410000
     51 H19         46.6810     7.9290    -5.4950 hc         1 CK0       0.061700
     52 H20         47.3730     6.3250    -5.6850 hc         1 CK0       0.061700
     53 H21         48.7820     8.7620    -4.5150 h1         1 CK0       0.066700
     54 H22         49.9330     8.7900    -6.5180 hn         1 CK0       0.403500
     55 H23         49.2450     7.4280    -7.0600 hn         1 CK0       0.403500
     56 H25         49.8100     5.9680    -5.1240 h1         1 CK0       0.060700
     57 H26         51.9850     5.6330    -4.6060 h2         1 CK0       0.087700
     58 H27         51.9740     8.6440    -6.7170 h1         1 CK0       0.044700
     59 H28         52.8020     8.5930    -8.9040 h1         1 CK0       0.041700
     60 H29         51.7670     7.2020    -8.6840 h1         1 CK0       0.041700
     61 H30         53.5770     6.3520    -9.7500 hn         1 CK0       0.394500
     62 H31         54.6630     7.1600    -8.8770 hn         1 CK0       0.394500
     63 H33         54.8080     7.5500    -6.5010 h1         1 CK0       0.058700
     64 H34         55.2450     9.8200    -6.6400 ho         1 CK0       0.523000
     65 H35         53.1110     9.2690    -4.6510 h1         1 CK0       0.053700
     66 H36         55.0400     8.7100    -3.3230 ho         1 CK0       0.474000
     67 H37         54.2120     6.4410    -4.4330 h1         1 CK0       0.081700
     68 H38         52.5370     7.8190    -2.5020 hn         1 CK0       0.411000
     69 H39         53.3370     6.4200    -2.3270 hn         1 CK0       0.411000
@<TRIPOS>BOND
     1     1     2 1   
     2     1     4 1   
     3     1     8 1   
     4     1    34 1   
     5     2     3 1   
     6     2    10 1   
     7     2    35 1   
     8     3     9 1   
     9     3    36 1   
    10     3    37 1   
    11     4     6 1   
    12     4     7 1   
    13     4    38 1   
    14     5     6 1   
    15     5    39 1   
    16     6    11 1   
    17     6    40 1   
    18     7    41 1   
    19     8    42 1   
    20     9    43 1   
    21    10    11 1   
    22    11    12 1   
    23    11    44 1   
    24    12    13 1   
    25    13    14 1   
    26    13    16 1   
    27    13    45 1   
    28    14    15 1   
    29    14    21 1   
    30    14    46 1   
    31    15    47 1   
    32    16    17 1   
    33    16    18 1   
    34    16    48 1   
    35    17    49 1   
    36    17    50 1   
    37    18    19 1   
    38    18    51 1   
    39    18    52 1   
    40    19    20 1   
    41    19    21 1   
    42    19    53 1   
    43    20    54 1   
    44    20    55 1   
    45    21    22 1   
    46    21    56 1   
    47    22    23 1   
    48    23    24 1   
    49    23    32 1   
    50    23    57 1   
    51    24    25 1   
    52    25    26 1   
    53    25    28 1   
    54    25    58 1   
    55    26    27 1   
    56    26    59 1   
    57    26    60 1   
    58    27    61 1   
    59    27    62 1   
    60    28    29 1   
    61    28    30 1   
    62    28    63 1   
    63    29    64 1   
    64    30    31 1   
    65    30    32 1   
    66    30    65 1   
    67    31    66 1   
    68    32    33 1   
    69    32    67 1   
    70    33    68 1   
    71    33    69 1   
@<TRIPOS>SUBSTRUCTURE
     1 CK0         1 TEMP              0 ****  ****    0 ROOT
