@<TRIPOS>MOLECULE
CK0
   69    71     1     0     0
SMALL
No Charge or Current Charge


@<TRIPOS>ATOM
      1 C4          47.6860     3.3030     1.2800 c6         1 CK0       0.121300
      2 C5          48.7540     3.2250     0.1360 c6         1 CK0       0.182300
      3 C6          49.6890     1.9740     0.2550 c3         1 CK0       0.171600
      4 C3          46.7710     4.5360     1.0310 c6         1 CK0       0.094300
      5 O2          45.2660     5.5910    -0.5810 oh         1 CK0      -0.714000
      6 C2          46.1220     4.4440    -0.3770 c6         1 CK0       0.153300
      7 O3          45.7580     4.6280     2.0520 oh         1 CK0      -0.672000
      8 O4          48.2870     3.4060     2.5920 oh         1 CK0      -0.721000
      9 O6          48.9880     0.7150     0.1710 oh         1 CK0      -0.711000
     10 O5          48.0990     3.1690    -1.1620 os         1 CK0      -0.452000
     11 C1          47.2430     4.2920    -1.4670 c6         1 CK0       0.390300
     12 O1          48.0640     5.4790    -1.5900 os         1 CK0      -0.488000
     13 CBG         48.2820     5.9610    -2.9460 c6         1 CK0       0.153300
     14 CBA         49.6230     6.7490    -2.9950 c6         1 CK0       0.148300
     15 OAK         50.6540     5.9530    -2.3820 oh         1 CK0      -0.724000
     16 CAT         47.1090     6.8630    -3.4780 c6         1 CK0       0.153500
     17 NAC         45.7840     6.1990    -3.4460 n8         1 CK0      -1.008200
     18 CAN         47.4100     7.3490    -4.9190 c6         1 CK0      -0.081400
     19 CAS         48.7690     8.0910    -4.9920 c6         1 CK0       0.163500
     20 NAB         49.0140     8.5720    -6.3740 n8         1 CK0      -0.993200
     21 CBF         49.9440     7.1980    -4.4670 c6         1 CK0       0.137300
     22 OAQ         51.2010     7.9250    -4.5880 os         1 CK0      -0.493000
     23 CBD         52.4000     7.1170    -4.6720 c6         1 CK0       0.356300
     24 OAO         52.5360     6.5960    -6.0170 os         1 CK0      -0.459000
     25 CBB         52.7680     7.5870    -7.0590 c6         1 CK0       0.178300
     26 CAL         52.8050     6.8400    -8.4400 c3         1 CK0       0.162800
     27 NAA         53.8910     5.8350    -8.6310 n8         1 CK0      -0.992200
     28 CAX         54.0660     8.4070    -6.7620 c6         1 CK0       0.144300
     29 OAH         54.3020     9.4410    -7.7400 oh         1 CK0      -0.722000
     30 CAV         53.9260     9.0460    -5.3540 c6         1 CK0       0.140300
     31 OAF         55.0890     9.7930    -4.9750 oh         1 CK0      -0.671000
     32 CAU         53.6770     7.9490    -4.2870 c6         1 CK0       0.104500
     33 NAD         53.6450     8.5780    -2.9200 n8         1 CK0      -1.009200
     34 H1          47.0610     2.3980     1.2230 h1         1 CK0       0.072700
     35 H2          49.3890     4.1220     0.1750 h1         1 CK0       0.044700
     36 H3          50.2400     2.0390     1.2020 h1         1 CK0       0.034700
     37 H4          50.4330     2.0410    -0.5500 h1         1 CK0       0.034700
     38 H5          47.4050     5.4360     1.0570 h1         1 CK0       0.063700
     39 H6          44.8960     5.7730     0.3170 ho         1 CK0       0.522000
     40 H7          45.5140     3.5280    -0.4090 h1         1 CK0       0.060700
     41 H8          46.2240     4.3970     2.8890 ho         1 CK0       0.452000
     42 H9          48.5680     2.4980     2.8560 ho         1 CK0       0.512000
     43 H10         49.6710     0.0090     0.1020 ho         1 CK0       0.504000
     44 H11         46.7410     4.0870    -2.4240 h2         1 CK0       0.099700
     45 H12         48.3850     5.0900    -3.6120 h1         1 CK0       0.070700
     46 H13         49.4850     7.6640    -2.3980 h1         1 CK0       0.048700
     47 H14         50.1880     5.4740    -1.6570 ho         1 CK0       0.510000
     48 H15         47.0310     7.7450    -2.8250 h1         1 CK0       0.027700
     49 H16         45.5500     6.0220    -2.4540 hn         1 CK0       0.410000
     50 H17         45.0680     6.8760    -3.7310 hn         1 CK0       0.410000
     51 H19         46.6090     8.0190    -5.2590 hc         1 CK0       0.061700
     52 H20         47.4150     6.4910    -5.6060 hc         1 CK0       0.061700
     53 H21         48.7100     8.9830    -4.3480 h1         1 CK0       0.066700
     54 H22         49.9720     8.9400    -6.3920 hn         1 CK0       0.403500
     55 H23         49.0640     7.7630    -7.0020 hn         1 CK0       0.403500
     56 H25         49.9990     6.3020    -5.1030 h1         1 CK0       0.060700
     57 H26         52.3370     6.2700    -3.9770 h2         1 CK0       0.087700
     58 H27         51.9120     8.2760    -7.0810 h1         1 CK0       0.044700
     59 H28         52.8860     7.5910    -9.2380 h1         1 CK0       0.041700
     60 H29         51.8410     6.3290    -8.5720 h1         1 CK0       0.041700
     61 H30         53.8200     5.4410    -9.5770 hn         1 CK0       0.394500
     62 H31         54.7950     6.3220    -8.6410 hn         1 CK0       0.394500
     63 H33         54.9190     7.7120    -6.7410 h1         1 CK0       0.058700
     64 H34         54.8990    10.0840    -7.2850 ho         1 CK0       0.523000
     65 H35         53.0510     9.7140    -5.3650 h1         1 CK0       0.053700
     66 H36         55.0590     9.7360    -3.9880 ho         1 CK0       0.474000
     67 H37         54.5350     7.2580    -4.3060 h1         1 CK0       0.081700
     68 H38         52.7310     9.0370    -2.8130 hn         1 CK0       0.411000
     69 H39         53.5980     7.8330    -2.2130 hn         1 CK0       0.411000
@<TRIPOS>BOND
     1     1     2 1   
     2     1     4 1   
     3     1     8 1   
     4     1    34 1   
     5     2     3 1   
     6     2    10 1   
     7     2    35 1   
     8     3     9 1   
     9     3    36 1   
    10     3    37 1   
    11     4     6 1   
    12     4     7 1   
    13     4    38 1   
    14     5     6 1   
    15     5    39 1   
    16     6    11 1   
    17     6    40 1   
    18     7    41 1   
    19     8    42 1   
    20     9    43 1   
    21    10    11 1   
    22    11    12 1   
    23    11    44 1   
    24    12    13 1   
    25    13    14 1   
    26    13    16 1   
    27    13    45 1   
    28    14    15 1   
    29    14    21 1   
    30    14    46 1   
    31    15    47 1   
    32    16    17 1   
    33    16    18 1   
    34    16    48 1   
    35    17    49 1   
    36    17    50 1   
    37    18    19 1   
    38    18    51 1   
    39    18    52 1   
    40    19    20 1   
    41    19    21 1   
    42    19    53 1   
    43    20    54 1   
    44    20    55 1   
    45    21    22 1   
    46    21    56 1   
    47    22    23 1   
    48    23    24 1   
    49    23    32 1   
    50    23    57 1   
    51    24    25 1   
    52    25    26 1   
    53    25    28 1   
    54    25    58 1   
    55    26    27 1   
    56    26    59 1   
    57    26    60 1   
    58    27    61 1   
    59    27    62 1   
    60    28    29 1   
    61    28    30 1   
    62    28    63 1   
    63    29    64 1   
    64    30    31 1   
    65    30    32 1   
    66    30    65 1   
    67    31    66 1   
    68    32    33 1   
    69    32    67 1   
    70    33    68 1   
    71    33    69 1   
@<TRIPOS>SUBSTRUCTURE
     1 CK0         1 TEMP              0 ****  ****    0 ROOT
