@<TRIPOS>MOLECULE
CK1
   19    20     1     0     0
SMALL
No Charge or Current Charge


@<TRIPOS>ATOM
      1 Cl7A        14.1450    44.2350    29.8460 cl         1 CK1      -0.138000
      2 C3A         13.8900    43.9030    28.1600 cc         1 CK1      -0.030000
      3 C4A         13.4540    44.8040    27.2250 cd         1 CK1      -0.098000
      4 S2A         14.1890    42.3240    27.4560 ss         1 CK1       0.270000
      5 C1A         13.7260    42.9370    25.8690 cc         1 CK1       0.023000
      6 Cl6A        13.7210    41.8680    24.4930 cl         1 CK1      -0.120000
      7 C5A         13.3340    44.2660    25.9040 cd         1 CK1      -0.162500
      8 C4          12.9270    45.0830    24.7400 ca         1 CK1       0.239500
      9 N3          13.4710    44.8060    23.5350 nb         1 CK1      -0.237000
     10 C5          12.1070    46.2180    24.9010 ca         1 CK1      -0.272000
     11 C6          11.8310    47.0020    23.7680 ca         1 CK1       0.148900
     12 N1          12.3520    46.7000    22.5640 nb         1 CK1      -0.240000
     13 C2          13.1440    45.6200    22.5210 ca         1 CK1       0.374900
     14 N7          13.6820    45.3190    21.3120 nv         1 CK1      -1.060900
     15 H4A         13.2350    45.8370    27.4780 ha         1 CK1       0.151000
     16 H5          11.6800    46.4790    25.8640 ha         1 CK1       0.135000
     17 H6          11.1920    47.8820    23.8260 h4         1 CK1       0.022100
     18 HN71        13.2990    45.7700    20.4840 hn         1 CK1       0.496000
     19 HN72        14.1080    44.4040    21.1800 hn         1 CK1       0.496000
@<TRIPOS>BOND
     1     1     2 1   
     2     2     3 2   
     3     2     4 1   
     4     3     7 1   
     5     3    15 1   
     6     4     5 1   
     7     5     6 1   
     8     5     7 2   
     9     7     8 1   
    10     8     9 ar  
    11     8    10 ar  
    12     9    13 ar  
    13    10    11 ar  
    14    10    16 1   
    15    11    12 ar  
    16    11    17 1   
    17    12    13 ar  
    18    13    14 1   
    19    14    18 1   
    20    14    19 1   
@<TRIPOS>SUBSTRUCTURE
     1 CK1         1 TEMP              0 ****  ****    0 ROOT
