@<TRIPOS>MOLECULE
CK1
   19    20     1     0     0
SMALL
abcg2


@<TRIPOS>ATOM
      1 CL7A        14.1030    44.1370    29.8230 cl         1 CK1      -0.138000
      2 C3A         13.8550    43.9020    28.1370 cc         1 CK1      -0.030000
      3 C4A         13.4960    44.8390    27.2240 cd         1 CK1      -0.098000
      4 S2A         14.0880    42.3400    27.4300 ss         1 CK1       0.270000
      5 C1A         13.7030    42.9740    25.8670 cc         1 CK1       0.023000
      6 CL6A        13.6560    41.8740    24.5490 cl         1 CK1      -0.120000
      7 C5A         13.4050    44.3160    25.8920 cd         1 CK1      -0.162500
      8 C4          13.0110    45.1490    24.7440 ca         1 CK1       0.239500
      9 N3          13.5170    44.8490    23.5460 nb         1 CK1      -0.237000
     10 C5          12.1330    46.2230    24.9130 ca         1 CK1      -0.272000
     11 C6          11.8100    46.9440    23.7750 ca         1 CK1       0.148900
     12 N1          12.2940    46.6580    22.5690 nb         1 CK1      -0.240000
     13 C2          13.1400    45.6110    22.5080 ca         1 CK1       0.374900
     14 N7          13.6830    45.3210    21.3000 nv         1 CK1      -1.060900
     15 H4A         13.3240    45.8750    27.4750 ha         1 CK1       0.151000
     16 H5          11.7070    46.4740    25.8720 ha         1 CK1       0.135000
     17 H6          11.1270    47.7850    23.8330 h4         1 CK1       0.022100
     18 HN71        13.2810    45.7470    20.4820 hn         1 CK1       0.496000
     19 HN72        14.1530    44.4380    21.1880 hn         1 CK1       0.496000
@<TRIPOS>BOND
     1     1     2 1   
     2     2     3 2   
     3     2     4 1   
     4     3     7 1   
     5     3    15 1   
     6     4     5 1   
     7     5     6 1   
     8     5     7 2   
     9     7     8 1   
    10     8     9 ar  
    11     8    10 ar  
    12     9    13 ar  
    13    10    11 ar  
    14    10    16 1   
    15    11    12 ar  
    16    11    17 1   
    17    12    13 ar  
    18    13    14 1   
    19    14    18 1   
    20    14    19 1   
@<TRIPOS>SUBSTRUCTURE
     1 CK1         1 TEMP              0 ****  ****    0 ROOT
