@<TRIPOS>MOLECULE
CK2
   24    25     1     0     0
SMALL
abcg2


@<TRIPOS>ATOM
      1 C7A         -0.2730     0.1510     4.4810 c3         1 CK2      -0.133400
      2 C3A          0.0550     0.0680     3.0330 cc         1 CK2       0.451700
      3 S4A         -1.1730     0.1330     1.8310 ss         1 CK2      -0.031400
      4 N2A          1.2540    -0.0410     2.5530 nd         1 CK2      -0.660000
      5 C1A          1.2740    -0.0740     1.1870 cd         1 CK2       0.358300
      6 C6A          2.5950    -0.2050     0.5050 c3         1 CK2      -0.117400
      7 C5A          0.0350     0.0110     0.5990 cc         1 CK2      -0.320500
      8 C4          -0.3270     0.0060    -0.8130 ca         1 CK2       0.265500
      9 N3           0.6530     0.1940    -1.6880 nb         1 CK2      -0.254000
     10 C5          -1.6450    -0.1860    -1.2350 ca         1 CK2      -0.286000
     11 C6          -1.8570    -0.1640    -2.6000 ca         1 CK2       0.154900
     12 N1          -0.8930     0.0210    -3.4880 nb         1 CK2      -0.246000
     13 C2           0.3350     0.1900    -2.9840 ca         1 CK2       0.383900
     14 N7           1.3360     0.4090    -3.8580 nv         1 CK2      -1.062900
     15 H7A1         0.6240    -0.0240     5.0690 hc         1 CK2       0.060367
     16 H7A2        -0.6660     1.1360     4.7360 hc         1 CK2       0.060367
     17 H7A3        -1.0260    -0.5840     4.7630 hc         1 CK2       0.060367
     18 H6A1         2.8990     0.7380     0.0500 hc         1 CK2       0.056367
     19 H6A2         3.3510    -0.4910     1.2340 hc         1 CK2       0.056367
     20 H6A3         2.5690    -0.9420    -0.2930 hc         1 CK2       0.056367
     21 H5          -2.4650    -0.3570    -0.5530 ha         1 CK2       0.136000
     22 H6          -2.8570    -0.3080    -2.9960 h4         1 CK2       0.021100
     23 HN71         1.1730     0.2470    -4.8370 hn         1 CK2       0.496000
     24 HN72         2.2850     0.3560    -3.5340 hn         1 CK2       0.496000
@<TRIPOS>BOND
     1     1     2 1   
     2     1    15 1   
     3     1    16 1   
     4     1    17 1   
     5     2     3 1   
     6     2     4 2   
     7     3     7 1   
     8     4     5 1   
     9     5     6 1   
    10     5     7 2   
    11     6    18 1   
    12     6    19 1   
    13     6    20 1   
    14     7     8 1   
    15     8     9 ar  
    16     8    10 ar  
    17     9    13 ar  
    18    10    11 ar  
    19    10    21 1   
    20    11    12 ar  
    21    11    22 1   
    22    12    13 ar  
    23    13    14 1   
    24    14    23 1   
    25    14    24 1   
@<TRIPOS>SUBSTRUCTURE
     1 CK2         1 TEMP              0 ****  ****    0 ROOT
