@<TRIPOS>MOLECULE
CK2
   24    25     1     0     0
SMALL
No Charge or Current Charge


@<TRIPOS>ATOM
      1 C7A         -0.2660    -0.1320     4.5160 c3         1 CK2      -0.133400
      2 C3A          0.0430    -0.0610     3.0510 cc         1 CK2       0.451700
      3 S4A         -1.2380    -0.0950     1.8740 ss         1 CK2      -0.031400
      4 N2A          1.2760     0.0410     2.5780 nd         1 CK2      -0.660000
      5 C1A          1.2630     0.0910     1.1910 cd         1 CK2       0.358300
      6 C6A          2.6000     0.2160     0.5040 c3         1 CK2      -0.117400
      7 C5A         -0.0120     0.0310     0.6390 cc         1 CK2      -0.320500
      8 C4          -0.3070     0.0390    -0.8060 ca         1 CK2       0.265500
      9 N3           0.6930    -0.0310    -1.7110 nb         1 CK2      -0.254000
     10 C5          -1.6430     0.1210    -1.2540 ca         1 CK2      -0.286000
     11 C6          -1.8870     0.1260    -2.6370 ca         1 CK2       0.154900
     12 N1          -0.8800     0.0540    -3.5260 nb         1 CK2      -0.246000
     13 C2           0.3510    -0.0190    -3.0060 ca         1 CK2       0.383900
     14 N7           1.3720    -0.0930    -3.8950 nv         1 CK2      -1.062900
     15 H7A1         0.6360    -0.3420     5.1020 hc         1 CK2       0.060367
     16 H7A2        -0.6880     0.8160     4.8660 hc         1 CK2       0.060367
     17 H7A3        -0.9940    -0.9260     4.7190 hc         1 CK2       0.060367
     18 H6A1         2.6290     1.0980    -0.1450 hc         1 CK2       0.056367
     19 H6A2         3.4160     0.3220     1.2290 hc         1 CK2       0.056367
     20 H6A3         2.8170    -0.6710    -0.1010 hc         1 CK2       0.056367
     21 H5          -2.4760     0.1840    -0.5620 ha         1 CK2       0.136000
     22 H6          -2.8980     0.1880    -3.0360 h4         1 CK2       0.021100
     23 HN71         1.1550    -0.3060    -4.8670 hn         1 CK2       0.496000
     24 HN72         2.2930    -0.3690    -3.5610 hn         1 CK2       0.496000
@<TRIPOS>BOND
     1     1     2 1   
     2     1    15 1   
     3     1    16 1   
     4     1    17 1   
     5     2     3 1   
     6     2     4 2   
     7     3     7 1   
     8     4     5 1   
     9     5     6 1   
    10     5     7 2   
    11     6    18 1   
    12     6    19 1   
    13     6    20 1   
    14     7     8 1   
    15     8     9 ar  
    16     8    10 ar  
    17     9    13 ar  
    18    10    11 ar  
    19    10    21 1   
    20    11    12 ar  
    21    11    22 1   
    22    12    13 ar  
    23    13    14 1   
    24    14    23 1   
    25    14    24 1   
@<TRIPOS>SUBSTRUCTURE
     1 CK2         1 TEMP              0 ****  ****    0 ROOT
