@<TRIPOS>MOLECULE
CK3
   28    29     1     0     0
SMALL
abcg2


@<TRIPOS>ATOM
      1 C7A          5.4710    -0.5720     0.0400 c3         1 CK3      -0.134400
      2 C3A          3.9850    -0.5540     0.0190 cc         1 CK3       0.457700
      3 S4A          3.1060     0.9230     0.0450 ss         1 CK3      -0.029400
      4 N2A          3.2350    -1.6120    -0.0030 nd         1 CK3      -0.660000
      5 C1A          1.9030    -1.3140     0.0020 cd         1 CK3       0.369300
      6 C6A          0.9300    -2.4460    -0.0230 c3         1 CK3      -0.120400
      7 C5A          1.6220     0.0330     0.0270 cc         1 CK3      -0.332500
      8 C4           0.3390     0.7140     0.0310 ca         1 CK3       0.268500
      9 N3          -0.7530    -0.0440     0.0200 nb         1 CK3      -0.238000
     10 C5           0.2360     2.1090     0.0450 ca         1 CK3      -0.268000
     11 C6          -1.0400     2.6330     0.0450 ca         1 CK3       0.151900
     12 N1          -2.1350     1.8830     0.0340 nb         1 CK3      -0.234000
     13 C2          -1.9280     0.5730     0.0210 ca         1 CK3       0.386900
     14 N7          -3.0190    -0.2550     0.0080 nu         1 CK3      -0.883100
     15 C8          -4.3180     0.1750     0.0050 c2         1 CK3       0.611100
     16 N9          -5.3530    -0.5630    -0.0010 n2         1 CK3      -0.401700
     17 O10         -5.0340    -1.9050    -0.0040 oh         1 CK3      -0.538000
     18 H7A1         5.8500    -0.2850     1.0220 hc         1 CK3       0.061700
     19 H7A2         5.8270    -1.5740    -0.1870 hc         1 CK3       0.061700
     20 H7A3         5.8890     0.1220    -0.6880 hc         1 CK3       0.061700
     21 H6A1         0.2800    -2.3980    -0.8950 hc         1 CK3       0.059033
     22 H6A2         1.4740    -3.3880    -0.0430 hc         1 CK3       0.059033
     23 H6A3         0.2800    -2.4350     0.8510 hc         1 CK3       0.059033
     24 H5           1.0930     2.7650     0.0540 ha         1 CK3       0.140000
     25 H6          -1.1900     3.7070     0.0550 h4         1 CK3       0.026100
     26 HN7         -2.8270    -1.2460     0.0020 hn         1 CK3       0.528000
     27 H8          -4.4750     1.2440     0.0080 h5         1 CK3       0.067800
     28 H10         -5.8870    -2.3490    -0.0070 ho         1 CK3       0.470000
@<TRIPOS>BOND
     1     1     2 1   
     2     1    18 1   
     3     1    19 1   
     4     1    20 1   
     5     2     3 1   
     6     2     4 2   
     7     3     7 1   
     8     4     5 1   
     9     5     6 1   
    10     5     7 2   
    11     6    21 1   
    12     6    22 1   
    13     6    23 1   
    14     7     8 1   
    15     8     9 ar  
    16     8    10 ar  
    17     9    13 ar  
    18    10    11 ar  
    19    10    24 1   
    20    11    12 ar  
    21    11    25 1   
    22    12    13 ar  
    23    13    14 1   
    24    14    15 1   
    25    14    26 1   
    26    15    16 2   
    27    15    27 1   
    28    16    17 1   
    29    17    28 1   
@<TRIPOS>SUBSTRUCTURE
     1 CK3         1 TEMP              0 ****  ****    0 ROOT
