@<TRIPOS>MOLECULE
CK3
   28    29     1     0     0
SMALL
No Charge or Current Charge


@<TRIPOS>ATOM
      1 C7A          5.4080    -0.6960     0.2340 c3         1 CK3      -0.134400
      2 C3A          3.9160    -0.6140     0.1160 cc         1 CK3       0.457700
      3 S4A          3.1020     0.9180     0.2490 ss         1 CK3      -0.029400
      4 N2A          3.1490    -1.6750    -0.0830 nd         1 CK3      -0.660000
      5 C1A          1.8120    -1.3040    -0.1480 cd         1 CK3       0.369300
      6 C6A          0.8120    -2.4120    -0.3650 c3         1 CK3      -0.120400
      7 C5A          1.6010     0.0610     0.0120 cc         1 CK3      -0.332500
      8 C4           0.2820     0.7200    -0.0360 ca         1 CK3       0.268500
      9 N3          -0.8240     0.0180    -0.3590 nb         1 CK3      -0.238000
     10 C5           0.1690     2.0960     0.2570 ca         1 CK3      -0.268000
     11 C6          -1.1010     2.6900     0.1990 ca         1 CK3       0.151900
     12 N1          -2.1940     1.9780    -0.1250 nb         1 CK3      -0.234000
     13 C2          -1.9940     0.6750    -0.3850 ca         1 CK3       0.386900
     14 N7          -3.0930    -0.0830    -0.7270 nu         1 CK3      -0.883100
     15 C8          -4.4150     0.1270    -0.3820 c2         1 CK3       0.611100
     16 N9          -5.0040    -0.6440     0.4830 n2         1 CK3      -0.401700
     17 O10         -4.2870    -1.8160     0.8760 oh         1 CK3      -0.538000
     18 H7A1         5.7180    -0.5590     1.2760 hc         1 CK3       0.061700
     19 H7A2         5.7800    -1.6690    -0.1070 hc         1 CK3       0.061700
     20 H7A3         5.8880     0.0810    -0.3710 hc         1 CK3       0.061700
     21 H6A1         0.2890    -2.2880    -1.3200 hc         1 CK3       0.059033
     22 H6A2         1.2990    -3.3940    -0.3870 hc         1 CK3       0.059033
     23 H6A3         0.0700    -2.4370     0.4410 hc         1 CK3       0.059033
     24 H5           1.0310     2.6980     0.5250 ha         1 CK3       0.140000
     25 H6          -1.2450     3.7480     0.4150 h4         1 CK3       0.026100
     26 HN7         -2.8970    -1.0730    -0.6080 hn         1 CK3       0.528000
     27 H8          -4.8440     1.0700    -0.7320 h5         1 CK3       0.067800
     28 H10         -4.8690    -2.2740     1.5330 ho         1 CK3       0.470000
@<TRIPOS>BOND
     1     1     2 1   
     2     1    18 1   
     3     1    19 1   
     4     1    20 1   
     5     2     3 1   
     6     2     4 2   
     7     3     7 1   
     8     4     5 1   
     9     5     6 1   
    10     5     7 2   
    11     6    21 1   
    12     6    22 1   
    13     6    23 1   
    14     7     8 1   
    15     8     9 ar  
    16     8    10 ar  
    17     9    13 ar  
    18    10    11 ar  
    19    10    24 1   
    20    11    12 ar  
    21    11    25 1   
    22    12    13 ar  
    23    13    14 1   
    24    14    15 1   
    25    14    26 1   
    26    15    16 2   
    27    15    27 1   
    28    16    17 1   
    29    17    28 1   
@<TRIPOS>SUBSTRUCTURE
     1 CK3         1 TEMP              0 ****  ****    0 ROOT
