@<TRIPOS>MOLECULE
CK4
   37    39     1     0     0
SMALL
No Charge or Current Charge


@<TRIPOS>ATOM
      1 F8B         -0.9090    -0.1090    -6.8020 f          1 CK4      -0.116000
      2 C7B          0.3540    -0.0420    -6.3230 c3         1 CK4       0.362300
      3 F1B          0.9260     1.0420    -6.8950 f          1 CK4      -0.116000
      4 F9B          1.0110    -1.1280    -6.7880 f          1 CK4      -0.116000
      5 C4B          0.3940     0.0180    -4.7920 ca         1 CK4      -0.237300
      6 C5B          1.4490     0.6770    -4.1270 ca         1 CK4      -0.027500
      7 C6B          1.4870     0.7200    -2.7230 ca         1 CK4      -0.168000
      8 C3B         -0.6060    -0.6140    -4.0230 ca         1 CK4      -0.027500
      9 C2B         -0.5610    -0.5650    -2.6200 ca         1 CK4      -0.168000
     10 C1B          0.4770     0.1140    -1.9600 ca         1 CK4       0.354000
     11 N7           0.5680     0.1730    -0.5660 nu         1 CK4      -0.927900
     12 C2          -0.3510     0.1230     0.4740 ca         1 CK4       0.389900
     13 N1          -1.6630     0.1550     0.1830 nb         1 CK4      -0.228000
     14 C6          -2.5060     0.1170     1.2280 ca         1 CK4       0.150900
     15 C5          -2.0330     0.0520     2.5470 ca         1 CK4      -0.267000
     16 N3           0.1940     0.0680     1.7000 nb         1 CK4      -0.247000
     17 C4          -0.6400     0.0290     2.7600 ca         1 CK4       0.269500
     18 C5A         -0.1030    -0.0350     4.1320 cc         1 CK4      -0.331500
     19 S4A         -1.0860     0.1470     5.5620 ss         1 CK4      -0.027400
     20 C1A          1.2380    -0.2130     4.4530 cd         1 CK4       0.366300
     21 C6A          2.4220    -0.4200     3.5420 c3         1 CK4      -0.120400
     22 N2A          1.4920    -0.2100     5.8180 nd         1 CK4      -0.660000
     23 C3A          0.3700    -0.0300     6.4980 cc         1 CK4       0.457700
     24 C7A          0.3230     0.0230     7.9960 c3         1 CK4      -0.135400
     25 H5B          2.2460     1.1560    -4.6940 ha         1 CK4       0.128500
     26 H6B          2.3050     1.2350    -2.2290 ha         1 CK4       0.137000
     27 H3B         -1.4190    -1.1520    -4.5090 ha         1 CK4       0.128500
     28 H2B         -1.3300    -1.0790    -2.0530 ha         1 CK4       0.137000
     29 HN7          1.5100     0.3720    -0.2320 hn         1 CK4       0.512000
     30 H6          -3.5720     0.1380     1.0050 h4         1 CK4       0.027100
     31 H5          -2.7400     0.0190     3.3700 ha         1 CK4       0.141000
     32 H6A1         2.6090     0.4700     2.9310 hc         1 CK4       0.057033
     33 H6A2         3.3370    -0.6210     4.1130 hc         1 CK4       0.057033
     34 H6A3         2.2630    -1.2750     2.8760 hc         1 CK4       0.057033
     35 H7A1         1.3110    -0.1630     8.4320 hc         1 CK4       0.062033
     36 H7A2        -0.0190     1.0070     8.3350 hc         1 CK4       0.062033
     37 H7A3        -0.3680    -0.7330     8.3860 hc         1 CK4       0.062033
@<TRIPOS>BOND
     1     1     2 1   
     2     2     3 1   
     3     2     4 1   
     4     2     5 1   
     5     5     6 ar  
     6     5     8 ar  
     7     6     7 ar  
     8     6    25 1   
     9     7    10 ar  
    10     7    26 1   
    11     8     9 ar  
    12     8    27 1   
    13     9    10 ar  
    14     9    28 1   
    15    10    11 1   
    16    11    12 1   
    17    11    29 1   
    18    12    13 ar  
    19    12    16 ar  
    20    13    14 ar  
    21    14    15 ar  
    22    14    30 1   
    23    15    17 ar  
    24    15    31 1   
    25    16    17 ar  
    26    17    18 1   
    27    18    19 1   
    28    18    20 2   
    29    19    23 1   
    30    20    21 1   
    31    20    22 1   
    32    21    32 1   
    33    21    33 1   
    34    21    34 1   
    35    22    23 2   
    36    23    24 1   
    37    24    35 1   
    38    24    36 1   
    39    24    37 1   
@<TRIPOS>SUBSTRUCTURE
     1 CK4         1 TEMP              0 ****  ****    0 ROOT
