@<TRIPOS>MOLECULE
CK4
   37    39     1     0     0
SMALL
abcg2


@<TRIPOS>ATOM
      1 F8B         -0.8080    -0.1890    -6.7480 f          1 CK4      -0.116000
      2 C7B          0.3800     0.1180    -6.2180 c3         1 CK4       0.362300
      3 F1B          0.7230     1.3240    -6.7030 f          1 CK4      -0.116000
      4 F9B          1.2700    -0.7510    -6.7250 f          1 CK4      -0.116000
      5 C4B          0.3710     0.0990    -4.7280 ca         1 CK4      -0.237300
      6 C5B          1.5630     0.3230    -4.0410 ca         1 CK4      -0.027500
      7 C6B          1.5840     0.3190    -2.6640 ca         1 CK4      -0.168000
      8 C3B         -0.7890    -0.1240    -4.0020 ca         1 CK4      -0.027500
      9 C2B         -0.7790    -0.1300    -2.6150 ca         1 CK4      -0.168000
     10 C1B          0.4140     0.0920    -1.9230 ca         1 CK4       0.354000
     11 N7           0.5500     0.1050    -0.5470 nu         1 CK4      -0.927900
     12 C2          -0.3610    -0.0500     0.4580 ca         1 CK4       0.389900
     13 N1          -1.6420    -0.2450     0.1750 nb         1 CK4      -0.228000
     14 C6          -2.4490    -0.3840     1.2200 ca         1 CK4       0.150900
     15 C5          -2.0120    -0.3360     2.5260 ca         1 CK4      -0.267000
     16 N3           0.1710     0.0250     1.6780 nb         1 CK4      -0.247000
     17 C4          -0.6410    -0.1210     2.7150 ca         1 CK4       0.269500
     18 C5A         -0.0480    -0.0500     4.0420 cc         1 CK4      -0.331500
     19 S4A         -1.0280     0.1740     5.4490 ss         1 CK4      -0.027400
     20 C1A          1.2700    -0.1450     4.4170 cd         1 CK4       0.366300
     21 C6A          2.4510    -0.3610     3.5320 c3         1 CK4      -0.120400
     22 N2A          1.4810    -0.0440     5.7620 nd         1 CK4      -0.660000
     23 C3A          0.3840     0.1270     6.4300 cc         1 CK4       0.457700
     24 C7A          0.3070     0.2880     7.9060 c3         1 CK4      -0.135400
     25 H5B          2.4880     0.5040    -4.5740 ha         1 CK4       0.128500
     26 H6B          2.5200     0.4950    -2.1480 ha         1 CK4       0.137000
     27 H3B         -1.7310    -0.3040    -4.5010 ha         1 CK4       0.128500
     28 H2B         -1.6960    -0.3090    -2.0790 ha         1 CK4       0.137000
     29 HN7          1.4860     0.2640    -0.2060 hn         1 CK4       0.512000
     30 H6          -3.4980    -0.5460     0.9990 h4         1 CK4       0.027100
     31 H5          -2.7050    -0.4710     3.3430 ha         1 CK4       0.141000
     32 H6A1         2.7330     0.5610     3.0220 hc         1 CK4       0.057033
     33 H6A2         3.2990    -0.6880     4.1310 hc         1 CK4       0.057033
     34 H6A3         2.2530    -1.1000     2.7600 hc         1 CK4       0.057033
     35 H7A1         1.2900     0.1280     8.3420 hc         1 CK4       0.062033
     36 H7A2        -0.0320     1.2900     8.1730 hc         1 CK4       0.062033
     37 H7A3        -0.3920    -0.4220     8.3470 hc         1 CK4       0.062033
@<TRIPOS>BOND
     1     1     2 1   
     2     2     3 1   
     3     2     4 1   
     4     2     5 1   
     5     5     6 ar  
     6     5     8 ar  
     7     6     7 ar  
     8     6    25 1   
     9     7    10 ar  
    10     7    26 1   
    11     8     9 ar  
    12     8    27 1   
    13     9    10 ar  
    14     9    28 1   
    15    10    11 1   
    16    11    12 1   
    17    11    29 1   
    18    12    13 ar  
    19    12    16 ar  
    20    13    14 ar  
    21    14    15 ar  
    22    14    30 1   
    23    15    17 ar  
    24    15    31 1   
    25    16    17 ar  
    26    17    18 1   
    27    18    19 1   
    28    18    20 2   
    29    19    23 1   
    30    20    21 1   
    31    20    22 1   
    32    21    32 1   
    33    21    33 1   
    34    21    34 1   
    35    22    23 2   
    36    23    24 1   
    37    24    35 1   
    38    24    36 1   
    39    24    37 1   
@<TRIPOS>SUBSTRUCTURE
     1 CK4         1 TEMP              0 ****  ****    0 ROOT
