@<TRIPOS>MOLECULE
CK5
   35    37     1     0     0
SMALL
No Charge or Current Charge


@<TRIPOS>ATOM
      1 O7B         -1.4500    -1.0560    -6.0190 oh         1 CK5      -0.536100
      2 C3B         -0.4010    -0.5120    -5.3420 ca         1 CK5       0.166100
      3 C2B         -0.4090    -0.4760    -3.9400 ca         1 CK5      -0.238000
      4 C1B          0.6740     0.0870    -3.2430 ca         1 CK5       0.359000
      5 C6B          1.7720     0.5850    -3.9610 ca         1 CK5      -0.210000
      6 C5B          1.7830     0.5510    -5.3650 ca         1 CK5      -0.045000
      7 C4B          0.6900     0.0030    -6.0550 ca         1 CK5      -0.176000
      8 N7           0.7210     0.1320    -1.8510 nu         1 CK5      -0.927900
      9 C2          -0.2310     0.1840    -0.8400 ca         1 CK5       0.394900
     10 N1          -1.5220     0.3590    -1.1730 nb         1 CK5      -0.234000
     11 C6          -2.3960     0.4150    -0.1540 ca         1 CK5       0.150900
     12 N3           0.2670     0.0720     0.4010 nb         1 CK5      -0.252000
     13 C4          -0.5990     0.1270     1.4350 ca         1 CK5       0.270500
     14 C5          -1.9740     0.3020     1.1790 ca         1 CK5      -0.274000
     15 C5A         -0.1150     0.0080     2.8230 cc         1 CK5      -0.327500
     16 C1A          1.1890    -0.3120     3.1850 cd         1 CK5       0.364300
     17 C6A          2.3720    -0.6450     2.3110 c3         1 CK5      -0.119400
     18 S4A         -1.1170     0.2930     4.2220 ss         1 CK5      -0.029400
     19 C3A          0.2830    -0.0340     5.2030 cc         1 CK5       0.455700
     20 N2A          1.3990    -0.3350     4.5570 nd         1 CK5      -0.660000
     21 C7A          0.1940     0.0190     6.6980 c3         1 CK5      -0.134400
     22 H7B         -2.1170    -1.3600    -5.3680 ho         1 CK5       0.467000
     23 H2B         -1.2440    -0.9010    -3.3960 ha         1 CK5       0.150000
     24 H6B          2.6200     1.0110    -3.4320 ha         1 CK5       0.113000
     25 H5B          2.6340     0.9460    -5.9160 ha         1 CK5       0.114000
     26 H4B          0.6920    -0.0280    -7.1410 ha         1 CK5       0.131000
     27 HN7          1.6670     0.2340    -1.4870 hn         1 CK5       0.510000
     28 H6          -3.4460     0.5520    -0.4100 h4         1 CK5       0.023100
     29 H5          -2.7050     0.3470     1.9790 ha         1 CK5       0.139000
     30 H6A1         2.6710     0.2190     1.7080 hc         1 CK5       0.057367
     31 H6A2         3.2420    -0.9400     2.9100 hc         1 CK5       0.057367
     32 H6A3         2.1440    -1.4790     1.6390 hc         1 CK5       0.057367
     33 H7A1         1.1910     0.0530     7.1530 hc         1 CK5       0.061700
     34 H7A2        -0.3570     0.9090     7.0220 hc         1 CK5       0.061700
     35 H7A3        -0.3270    -0.8650     7.0830 hc         1 CK5       0.061700
@<TRIPOS>BOND
     1     1     2 1   
     2     1    22 1   
     3     2     3 ar  
     4     2     7 ar  
     5     3     4 ar  
     6     3    23 1   
     7     4     5 ar  
     8     4     8 1   
     9     5     6 ar  
    10     5    24 1   
    11     6     7 ar  
    12     6    25 1   
    13     7    26 1   
    14     8     9 1   
    15     8    27 1   
    16     9    10 ar  
    17     9    12 ar  
    18    10    11 ar  
    19    11    14 ar  
    20    11    28 1   
    21    12    13 ar  
    22    13    14 ar  
    23    13    15 1   
    24    14    29 1   
    25    15    16 2   
    26    15    18 1   
    27    16    17 1   
    28    16    20 1   
    29    17    30 1   
    30    17    31 1   
    31    17    32 1   
    32    18    19 1   
    33    19    20 2   
    34    19    21 1   
    35    21    33 1   
    36    21    34 1   
    37    21    35 1   
@<TRIPOS>SUBSTRUCTURE
     1 CK5         1 TEMP              0 ****  ****    0 ROOT
