@<TRIPOS>MOLECULE
CK5
   35    37     1     0     0
SMALL
abcg2


@<TRIPOS>ATOM
      1 O7B         -1.6320    -0.1620    -6.0470 oh         1 CK5      -0.536100
      2 C3B         -0.5020    -0.0610    -5.3160 ca         1 CK5       0.166100
      3 C2B         -0.5390    -0.0680    -3.9240 ca         1 CK5      -0.238000
      4 C1B          0.6490     0.0340    -3.1990 ca         1 CK5       0.359000
      5 C6B          1.8640     0.1430    -3.8870 ca         1 CK5      -0.210000
      6 C5B          1.8760     0.1490    -5.2690 ca         1 CK5      -0.045000
      7 C4B          0.7030     0.0480    -6.0030 ca         1 CK5      -0.176000
      8 N7           0.7270     0.0330    -1.8120 nu         1 CK5      -0.927900
      9 C2          -0.2290    -0.0370    -0.8450 ca         1 CK5       0.394900
     10 N1          -1.5130    -0.1270    -1.1750 nb         1 CK5      -0.234000
     11 C6          -2.3670    -0.1920    -0.1600 ca         1 CK5       0.150900
     12 N3           0.2580     0.0010     0.3970 nb         1 CK5      -0.252000
     13 C4          -0.6020    -0.0700     1.4020 ca         1 CK5       0.270500
     14 C5          -1.9780    -0.1730     1.1610 ca         1 CK5      -0.274000
     15 C5A         -0.0570    -0.0370     2.7510 cc         1 CK5      -0.327500
     16 C1A          1.2440    -0.1650     3.1740 cd         1 CK5       0.364300
     17 C6A          2.4550    -0.3830     2.3300 c3         1 CK5      -0.119400
     18 S4A         -1.0840     0.1860     4.1250 ss         1 CK5      -0.029400
     19 C3A          0.2890     0.0960     5.1570 cc         1 CK5       0.455700
     20 N2A          1.4070    -0.0870     4.5270 nd         1 CK5      -0.660000
     21 C7A          0.1570     0.2110     6.6330 c3         1 CK5      -0.134400
     22 H7B         -2.4000    -0.2320    -5.4690 ho         1 CK5       0.467000
     23 H2B         -1.4830    -0.1550    -3.4050 ha         1 CK5       0.150000
     24 H6B          2.7920     0.2250    -3.3340 ha         1 CK5       0.113000
     25 H5B          2.8210     0.2360    -5.7890 ha         1 CK5       0.114000
     26 H4B          0.7190     0.0530    -7.0850 ha         1 CK5       0.131000
     27 HN7          1.6600     0.1000    -1.4350 hn         1 CK5       0.510000
     28 H6          -3.4170    -0.2680    -0.4200 h4         1 CK5       0.023100
     29 H5          -2.7110    -0.2440     1.9510 ha         1 CK5       0.139000
     30 H6A1         2.7400     0.5290     1.8050 hc         1 CK5       0.057367
     31 H6A2         3.2880    -0.6860     2.9620 hc         1 CK5       0.057367
     32 H6A3         2.2880    -1.1430     1.5700 hc         1 CK5       0.057367
     33 H7A1         1.1450     0.2450     7.0850 hc         1 CK5       0.061700
     34 H7A2        -0.3890     1.1110     6.9150 hc         1 CK5       0.061700
     35 H7A3        -0.3830    -0.6430     7.0450 hc         1 CK5       0.061700
@<TRIPOS>BOND
     1     1     2 1   
     2     1    22 1   
     3     2     3 ar  
     4     2     7 ar  
     5     3     4 ar  
     6     3    23 1   
     7     4     5 ar  
     8     4     8 1   
     9     5     6 ar  
    10     5    24 1   
    11     6     7 ar  
    12     6    25 1   
    13     7    26 1   
    14     8     9 1   
    15     8    27 1   
    16     9    10 ar  
    17     9    12 ar  
    18    10    11 ar  
    19    11    14 ar  
    20    11    28 1   
    21    12    13 ar  
    22    13    14 ar  
    23    13    15 1   
    24    14    29 1   
    25    15    16 2   
    26    15    18 1   
    27    16    17 1   
    28    16    20 1   
    29    17    30 1   
    30    17    31 1   
    31    17    32 1   
    32    18    19 1   
    33    19    20 2   
    34    19    21 1   
    35    21    33 1   
    36    21    34 1   
    37    21    35 1   
@<TRIPOS>SUBSTRUCTURE
     1 CK5         1 TEMP              0 ****  ****    0 ROOT
