@<TRIPOS>MOLECULE
CK6
   37    39     1     0     0
SMALL
No Charge or Current Charge


@<TRIPOS>ATOM
      1 C6A          2.2850     0.2680     2.0930 c3         1 CK6      -0.123400
      2 C1A          1.0660     0.0790     2.9570 cc         1 CK6       0.421300
      3 N2A          1.2710     0.1220     4.3140 nc         1 CK6      -0.759000
      4 C3A          0.1360    -0.0550     4.9420 cd         1 CK6       0.737300
      5 N7A          0.1240    -0.0460     6.2980 nu         1 CK6      -0.923100
      6 C8A          1.2800     0.1460     7.1930 c3         1 CK6       0.223100
      7 C5A         -0.2430    -0.1340     2.5510 cd         1 CK6      -0.355500
      8 S4A         -1.2940    -0.2910     3.9590 ss         1 CK6      -0.110400
      9 C4          -0.7850    -0.2340     1.1780 ca         1 CK6       0.285500
     10 C5          -2.1590    -0.4430     0.9430 ca         1 CK6      -0.286000
     11 N3           0.0660    -0.1250     0.1390 nb         1 CK6      -0.266000
     12 C2          -0.4490    -0.2140    -1.0970 ca         1 CK6       0.393900
     13 N1          -1.7380    -0.4240    -1.4160 nb         1 CK6      -0.239000
     14 C6          -2.5960    -0.5350    -0.3870 ca         1 CK6       0.149900
     15 N7           0.4880    -0.1240    -2.1200 nu         1 CK6      -0.932900
     16 C1B          0.4170    -0.0460    -3.5180 ca         1 CK6       0.280000
     17 C2B         -0.7030     0.4860    -4.1920 ca         1 CK6      -0.104500
     18 C3B         -0.7230     0.5570    -5.5980 ca         1 CK6      -0.151500
     19 C6B          1.5210    -0.4820    -4.2750 ca         1 CK6      -0.104500
     20 C5B          1.5020    -0.4120    -5.6820 ca         1 CK6      -0.151500
     21 C4B          0.3760     0.1050    -6.3410 ca         1 CK6       0.114100
     22 O7B          0.3470     0.1790    -7.7020 oh         1 CK6      -0.534100
     23 H6A1         2.1660     1.1400     1.4400 hc         1 CK6       0.057700
     24 H6A2         3.1870     0.4280     2.6950 hc         1 CK6       0.057700
     25 H6A3         2.4580    -0.6150     1.4680 hc         1 CK6       0.057700
     26 H7A         -0.7960    -0.1900     6.7100 hn         1 CK6       0.506000
     27 H8A1         0.9650     0.1030     8.2440 h1         1 CK6       0.045700
     28 H8A2         2.0310    -0.6380     7.0260 h1         1 CK6       0.045700
     29 H8A3         1.7500     1.1220     7.0120 h1         1 CK6       0.045700
     30 H5          -2.8750    -0.5370     1.7520 ha         1 CK6       0.134000
     31 H6          -3.6440    -0.7000    -0.6330 h4         1 CK6       0.020100
     32 HN7          1.4410    -0.1990    -1.7640 hn         1 CK6       0.506000
     33 H2B         -1.5540     0.8640    -3.6350 ha         1 CK6       0.128000
     34 H3B         -1.5910     0.9690    -6.1070 ha         1 CK6       0.120500
     35 H6B          2.3970    -0.8850    -3.7730 ha         1 CK6       0.128000
     36 H5B          2.3640    -0.7600    -6.2470 ha         1 CK6       0.120500
     37 H7B          1.1930    -0.1750    -8.0540 ho         1 CK6       0.462000
@<TRIPOS>BOND
     1     1     2 1   
     2     1    23 1   
     3     1    24 1   
     4     1    25 1   
     5     2     3 1   
     6     2     7 2   
     7     3     4 2   
     8     4     5 1   
     9     4     8 1   
    10     5     6 1   
    11     5    26 1   
    12     6    27 1   
    13     6    28 1   
    14     6    29 1   
    15     7     8 1   
    16     7     9 1   
    17     9    10 ar  
    18     9    11 ar  
    19    10    14 ar  
    20    10    30 1   
    21    11    12 ar  
    22    12    13 ar  
    23    12    15 1   
    24    13    14 ar  
    25    14    31 1   
    26    15    16 1   
    27    15    32 1   
    28    16    17 ar  
    29    16    19 ar  
    30    17    18 ar  
    31    17    33 1   
    32    18    21 ar  
    33    18    34 1   
    34    19    20 ar  
    35    19    35 1   
    36    20    21 ar  
    37    20    36 1   
    38    21    22 1   
    39    22    37 1   
@<TRIPOS>SUBSTRUCTURE
     1 CK6         1 TEMP              0 ****  ****    0 ROOT
