@<TRIPOS>MOLECULE
CK6
   37    39     1     0     0
SMALL
bcc


@<TRIPOS>ATOM
      1 C6A          2.3000     0.3180     2.0690 c3         1 CK6      -0.123400
      2 C1A          1.0980     0.1010     2.9280 cc         1 CK6       0.486600
      3 N2A          1.2790     0.0910     4.2740 nc         1 CK6      -0.759000
      4 C3A          0.1550    -0.1030     4.9140 cd         1 CK6       0.737300
      5 N7A          0.0590    -0.1470     6.2420 nu         1 CK6      -0.867900
      6 C8A          1.2170    -0.0080     7.0950 c3         1 CK6       0.223100
      7 C5A         -0.1950    -0.0900     2.4980 cd         1 CK6      -0.275900
      8 S4A         -1.2360    -0.2920     3.8930 ss         1 CK6      -0.255300
      9 C4          -0.7390    -0.1380     1.1620 ca         1 CK6       0.613800
     10 C5          -2.1110    -0.3280     0.9220 ca         1 CK6      -0.434600
     11 N3           0.1040     0.0050     0.1450 nb         1 CK6      -0.792000
     12 C2          -0.3930    -0.0420    -1.0930 ca         1 CK6       0.919900
     13 N1          -1.6710    -0.2080    -1.4190 nb         1 CK6      -0.765000
     14 C6          -2.5070    -0.3490    -0.3950 ca         1 CK6       0.478200
     15 N7           0.5410     0.0920    -2.0720 nu         1 CK6      -0.739300
     16 C1B          0.4090     0.0300    -3.4620 ca         1 CK6       0.141600
     17 C2B         -0.7520     0.3640    -4.1610 ca         1 CK6      -0.122500
     18 C3B         -0.7800     0.3070    -5.5460 ca         1 CK6      -0.169500
     19 C6B          1.5340    -0.3440    -4.1960 ca         1 CK6      -0.122500
     20 C5B          1.5100    -0.3890    -5.5800 ca         1 CK6      -0.169500
     21 C4B          0.3450    -0.0680    -6.2710 ca         1 CK6       0.114100
     22 O7B          0.2580    -0.1030    -7.6190 oh         1 CK6      -0.495100
     23 H6A1         2.2150     1.2380     1.4920 hc         1 CK6       0.057700
     24 H6A2         3.1860     0.3810     2.6970 hc         1 CK6       0.057700
     25 H6A3         2.4320    -0.4870     1.3490 hc         1 CK6       0.057700
     26 H7A         -0.8260    -0.3590     6.6680 hn         1 CK6       0.450800
     27 H8A1         0.8790    -0.0290     8.1270 h1         1 CK6       0.045700
     28 H8A2         1.9310    -0.8190     6.9450 h1         1 CK6       0.045700
     29 H8A3         1.7280     0.9370     6.9160 h1         1 CK6       0.045700
     30 H5          -2.8370    -0.4470     1.7140 ha         1 CK6       0.152000
     31 H6          -3.5530    -0.4870    -0.6460 h4         1 CK6       0.020100
     32 HN7          1.4860     0.1210    -1.7220 hn         1 CK6       0.450800
     33 H2B         -1.6410     0.6650    -3.6320 ha         1 CK6       0.146000
     34 H3B         -1.6920     0.5690    -6.0680 ha         1 CK6       0.138500
     35 H6B          2.4500    -0.6090    -3.6790 ha         1 CK6       0.146000
     36 H5B          2.4040    -0.6850    -6.1160 ha         1 CK6       0.138500
     37 H7B          1.0960    -0.3840    -8.0000 ho         1 CK6       0.423000
@<TRIPOS>BOND
     1     1     2 1   
     2     1    23 1   
     3     1    24 1   
     4     1    25 1   
     5     2     3 1   
     6     2     7 2   
     7     3     4 2   
     8     4     5 1   
     9     4     8 1   
    10     5     6 1   
    11     5    26 1   
    12     6    27 1   
    13     6    28 1   
    14     6    29 1   
    15     7     8 1   
    16     7     9 1   
    17     9    10 ar  
    18     9    11 ar  
    19    10    14 ar  
    20    10    30 1   
    21    11    12 ar  
    22    12    13 ar  
    23    12    15 1   
    24    13    14 ar  
    25    14    31 1   
    26    15    16 1   
    27    15    32 1   
    28    16    17 ar  
    29    16    19 ar  
    30    17    18 ar  
    31    17    33 1   
    32    18    21 ar  
    33    18    34 1   
    34    19    20 ar  
    35    19    35 1   
    36    20    21 ar  
    37    20    36 1   
    38    21    22 1   
    39    22    37 1   
@<TRIPOS>SUBSTRUCTURE
     1 CK6         1 TEMP              0 ****  ****    0 ROOT
