@<TRIPOS>MOLECULE
CK7
   35    37     1     0     0
SMALL
bcc


@<TRIPOS>ATOM
      1 N7A          7.0420    -0.0790    -0.2060 nv         1 CK7      -0.950500
      2 C3A          5.7230     0.1270    -0.1520 cc         1 CK7       0.734300
      3 N2A          5.1640     1.3040    -0.2600 nd         1 CK7      -0.757000
      4 C1A          3.8100     1.2280    -0.2090 cd         1 CK7       0.490600
      5 C6A          3.0370     2.4990    -0.3230 c3         1 CK7      -0.124400
      6 S4A          4.6080    -1.1880     0.0230 ss         1 CK7      -0.240300
      7 C5A          3.2910    -0.0380    -0.0580 cc         1 CK7      -0.282900
      8 C4           1.9210    -0.4810     0.0350 ca         1 CK7       0.614800
      9 N3           0.9640     0.4360    -0.0660 nb         1 CK7      -0.785000
     10 C5           1.5850    -1.8330     0.2240 ca         1 CK7      -0.420600
     11 C6           0.2450    -2.1310     0.2960 ca         1 CK7       0.481200
     12 N1          -0.7170    -1.2160     0.2010 nb         1 CK7      -0.759000
     13 C2          -0.3010     0.0310     0.0250 ca         1 CK7       0.914900
     14 N7          -1.2100     1.0470    -0.0820 nu         1 CK7      -0.739300
     15 C1B         -2.5920     1.0490    -0.0420 ca         1 CK7       0.184600
     16 C6B         -3.2260     2.2890    -0.2010 ca         1 CK7      -0.159000
     17 C2B         -3.3820    -0.0860     0.1440 ca         1 CK7      -0.107000
     18 C3B         -4.7610     0.0590     0.1630 ca         1 CK7      -0.143200
     19 N7B         -5.5700    -1.1400     0.3570 no         1 CK7       0.310200
     20 O8B         -6.7720    -1.0150     0.3830 o          1 CK7      -0.208000
     21 O9B         -5.0030    -2.2000     0.4820 o          1 CK7      -0.208000
     22 C4B         -5.4010     1.2760     0.0070 ca         1 CK7      -0.103000
     23 C5B         -4.6030     2.3950    -0.1760 ca         1 CK7      -0.106000
     24 H7A1         7.6510     0.7220    -0.1710 hn         1 CK7       0.444300
     25 H7A2         7.4440    -0.9650     0.0470 hn         1 CK7       0.444300
     26 H6A1         2.4340     2.5140    -1.2310 hc         1 CK7       0.058700
     27 H6A2         2.3470     2.6280     0.5080 hc         1 CK7       0.058700
     28 H6A3         3.7250     3.3420    -0.3490 hc         1 CK7       0.058700
     29 H5           2.3230    -2.6160     0.3120 ha         1 CK7       0.156000
     30 H6          -0.0810    -3.1550     0.4400 h4         1 CK7       0.028100
     31 HN7         -0.7770     1.9480    -0.2220 hn         1 CK7       0.456800
     32 H6B         -2.6270     3.1790    -0.3480 ha         1 CK7       0.138000
     33 H2B         -2.9190    -1.0500     0.2710 ha         1 CK7       0.206000
     34 H4B         -6.4770     1.3640     0.0250 ha         1 CK7       0.171000
     35 H5B         -5.0620     3.3650    -0.3020 ha         1 CK7       0.144000
@<TRIPOS>BOND
     1     1     2 1   
     2     1    24 1   
     3     1    25 1   
     4     2     3 2   
     5     2     6 1   
     6     3     4 1   
     7     4     5 1   
     8     4     7 2   
     9     5    26 1   
    10     5    27 1   
    11     5    28 1   
    12     6     7 1   
    13     7     8 1   
    14     8     9 ar  
    15     8    10 ar  
    16     9    13 ar  
    17    10    11 ar  
    18    10    29 1   
    19    11    12 ar  
    20    11    30 1   
    21    12    13 ar  
    22    13    14 1   
    23    14    15 1   
    24    14    31 1   
    25    15    16 ar  
    26    15    17 ar  
    27    16    23 ar  
    28    16    32 1   
    29    17    18 ar  
    30    17    33 1   
    31    18    19 1   
    32    18    22 ar  
    33    19    20 1   
    34    19    21 1   
    35    22    23 ar  
    36    22    34 1   
    37    23    35 1   
@<TRIPOS>SUBSTRUCTURE
     1 CK7         1 TEMP              0 ****  ****    0 ROOT
