@<TRIPOS>MOLECULE
CK7
   35    37     1     0     0
SMALL
No Charge or Current Charge


@<TRIPOS>ATOM
      1 N7A          7.0900     0.0700    -0.1890 nv         1 CK7      -1.060900
      2 C3A          5.7590     0.1310    -0.1620 cc         1 CK7       0.734300
      3 N2A          5.2240     1.2980     0.0430 nd         1 CK7      -0.757000
      4 C1A          3.8390     1.1760     0.0540 cd         1 CK7       0.425300
      5 C6A          3.0510     2.4410     0.2840 c3         1 CK7      -0.124400
      6 S4A          4.7140    -1.2410    -0.3440 ss         1 CK7      -0.095400
      7 C5A          3.3840    -0.1270    -0.1390 cc         1 CK7      -0.362500
      8 C4           1.9650    -0.5230    -0.1950 ca         1 CK7       0.286500
      9 N3           0.9930     0.4110    -0.1950 nb         1 CK7      -0.259000
     10 C5           1.6170    -1.8880    -0.2530 ca         1 CK7      -0.272000
     11 C6           0.2570    -2.2270    -0.3110 ca         1 CK7       0.152900
     12 N1          -0.7000    -1.2850    -0.3110 nb         1 CK7      -0.233000
     13 C2          -0.2800    -0.0100    -0.2420 ca         1 CK7       0.388900
     14 N7          -1.2250     1.0080    -0.2690 nu         1 CK7      -0.932900
     15 C1B         -2.6240     1.0540    -0.2080 ca         1 CK7       0.323000
     16 C6B         -3.2810     2.1490    -0.7940 ca         1 CK7      -0.141000
     17 C2B         -3.3870     0.0670     0.4480 ca         1 CK7      -0.089000
     18 C3B         -4.8010     0.1540     0.5000 ca         1 CK7      -0.143200
     19 N7B         -5.6050    -0.9040     1.1990 no         1 CK7       0.690200
     20 O8B         -6.8370    -0.7830     1.2250 o          1 CK7      -0.398000
     21 O9B         -4.9990    -1.8520     1.7170 o          1 CK7      -0.398000
     22 C4B         -5.4420     1.2570    -0.1130 ca         1 CK7      -0.085000
     23 C5B         -4.6810     2.2490    -0.7520 ca         1 CK7      -0.088000
     24 H7A1         7.5420     0.8850     0.2060 hn         1 CK7       0.499500
     25 H7A2         7.5060    -0.8240     0.0390 hn         1 CK7       0.499500
     26 H6A1         2.4490     2.6950    -0.5950 hc         1 CK7       0.058700
     27 H6A2         2.3850     2.3370     1.1480 hc         1 CK7       0.058700
     28 H6A3         3.7100     3.2940     0.4850 hc         1 CK7       0.058700
     29 H5           2.3680    -2.6710    -0.2520 ha         1 CK7       0.138000
     30 H6          -0.0690    -3.2650    -0.3610 h4         1 CK7       0.028100
     31 HN7         -0.7990     1.9160    -0.4510 hn         1 CK7       0.512000
     32 H6B         -2.7050     2.9230    -1.2940 ha         1 CK7       0.120000
     33 H2B         -2.8780    -0.7570     0.9350 ha         1 CK7       0.188000
     34 H4B         -6.5260     1.3560    -0.0920 ha         1 CK7       0.153000
     35 H5B         -5.1790     3.0980    -1.2170 ha         1 CK7       0.126000
@<TRIPOS>BOND
     1     1     2 1   
     2     1    24 1   
     3     1    25 1   
     4     2     3 2   
     5     2     6 1   
     6     3     4 1   
     7     4     5 1   
     8     4     7 2   
     9     5    26 1   
    10     5    27 1   
    11     5    28 1   
    12     6     7 1   
    13     7     8 1   
    14     8     9 ar  
    15     8    10 ar  
    16     9    13 ar  
    17    10    11 ar  
    18    10    29 1   
    19    11    12 ar  
    20    11    30 1   
    21    12    13 ar  
    22    13    14 1   
    23    14    15 1   
    24    14    31 1   
    25    15    16 ar  
    26    15    17 ar  
    27    16    23 ar  
    28    16    32 1   
    29    17    18 ar  
    30    17    33 1   
    31    18    19 1   
    32    18    22 ar  
    33    19    20 1   
    34    19    21 1   
    35    22    23 ar  
    36    22    34 1   
    37    23    35 1   
@<TRIPOS>SUBSTRUCTURE
     1 CK7         1 TEMP              0 ****  ****    0 ROOT
