@<TRIPOS>MOLECULE
CK8
   42    44     1     0     0
SMALL
bcc


@<TRIPOS>ATOM
      1 C6           2.4460     0.2220    -0.7390 ca         1 CK8       0.480200
      2 N1           1.6450     0.0760     0.3070 nb         1 CK8      -0.759000
      3 C2           0.3520    -0.0770     0.0270 ca         1 CK8       0.919900
      4 N3          -0.1850    -0.1030    -1.1960 nb         1 CK8      -0.785000
      5 C4           0.6270     0.0430    -2.2320 ca         1 CK8       0.596800
      6 C5           2.0050     0.2170    -2.0460 ca         1 CK8      -0.433600
      7 C5A          0.0270     0.0150    -3.5580 cc         1 CK8      -0.242900
      8 C1A         -1.2910    -0.1280    -3.9250 cd         1 CK8       0.426600
      9 N2A         -1.5060    -0.1160    -5.2730 nd         1 CK8      -0.661000
     10 C3A         -0.4120     0.0290    -5.9540 cc         1 CK8       0.451700
     11 S4A          0.9990     0.1660    -4.9810 ss         1 CK8      -0.175300
     12 C6A         -2.4730    -0.2920    -3.0280 c3         1 CK8      -0.117400
     13 C7A         -0.3410     0.0930    -7.4380 c3         1 CK8      -0.133400
     14 N7          -0.5410    -0.2210     1.0360 nu         1 CK8      -0.733300
     15 C1B         -0.3400    -0.1950     2.4220 ca         1 CK8       0.118600
     16 C2B          0.8150    -0.6390     3.0600 ca         1 CK8      -0.112500
     17 C3B          0.9180    -0.6190     4.4420 ca         1 CK8      -0.181000
     18 C4B         -0.1350    -0.1810     5.2630 ca         1 CK8       0.167600
     19 C5B         -1.2920     0.2700     4.6050 ca         1 CK8      -0.181000
     20 C6B         -1.3840     0.2620     3.2250 ca         1 CK8      -0.112500
     21 N7B         -0.0470    -0.2080     6.6380 nh         1 CK8      -0.673000
     22 C8B         -1.0080     0.5410     7.4130 c3         1 CK8       0.207100
     23 C9B          1.2370    -0.4560     7.2500 c3         1 CK8       0.207100
     24 H6           3.5010     0.3490    -0.5220 h4         1 CK8       0.021100
     25 H5           2.7020     0.3410    -2.8610 ha         1 CK8       0.154000
     26 H6A1        -2.4050    -1.2080    -2.4420 hc         1 CK8       0.056700
     27 H6A2        -2.5580     0.5270    -2.3160 hc         1 CK8       0.056700
     28 H6A3        -3.3790    -0.3310    -3.6290 hc         1 CK8       0.056700
     29 H7A1        -1.3080    -0.1690    -7.8610 hc         1 CK8       0.060367
     30 H7A2        -0.0780     1.0970    -7.7720 hc         1 CK8       0.060367
     31 H7A3         0.4110    -0.5910    -7.8300 hc         1 CK8       0.060367
     32 HN7         -1.5020    -0.2400     0.7270 hn         1 CK8       0.451800
     33 H2B          1.6550    -1.0000     2.4860 ha         1 CK8       0.140000
     34 H3B          1.8460    -0.9680     4.8730 ha         1 CK8       0.130500
     35 H5B         -2.1420     0.6390     5.1600 ha         1 CK8       0.130500
     36 H6B         -2.2950     0.6260     2.7640 ha         1 CK8       0.140000
     37 H8B1        -0.8190     0.3760     8.4720 h1         1 CK8       0.034533
     38 H8B2        -0.9690     1.6200     7.2260 h1         1 CK8       0.034533
     39 H8B3        -2.0280     0.2050     7.2200 h1         1 CK8       0.034533
     40 H9B1         1.1140    -0.5040     8.3290 h1         1 CK8       0.034533
     41 H9B2         1.6490    -1.4150     6.9330 h1         1 CK8       0.034533
     42 H9B3         1.9810     0.3190     7.0300 h1         1 CK8       0.034533
@<TRIPOS>BOND
     1     1     2 ar  
     2     1     6 ar  
     3     1    24 1   
     4     2     3 ar  
     5     3     4 ar  
     6     3    14 1   
     7     4     5 ar  
     8     5     6 ar  
     9     5     7 1   
    10     6    25 1   
    11     7     8 2   
    12     7    11 1   
    13     8     9 1   
    14     8    12 1   
    15     9    10 2   
    16    10    11 1   
    17    10    13 1   
    18    12    26 1   
    19    12    27 1   
    20    12    28 1   
    21    13    29 1   
    22    13    30 1   
    23    13    31 1   
    24    14    15 1   
    25    14    32 1   
    26    15    16 ar  
    27    15    20 ar  
    28    16    17 ar  
    29    16    33 1   
    30    17    18 ar  
    31    17    34 1   
    32    18    19 ar  
    33    18    21 1   
    34    19    20 ar  
    35    19    35 1   
    36    20    36 1   
    37    21    22 1   
    38    21    23 1   
    39    22    37 1   
    40    22    38 1   
    41    22    39 1   
    42    23    40 1   
    43    23    41 1   
    44    23    42 1   
@<TRIPOS>SUBSTRUCTURE
     1 CK8         1 TEMP              0 ****  ****    0 ROOT
