@<TRIPOS>MOLECULE
CK8
   42    44     1     0     0
SMALL
No Charge or Current Charge


@<TRIPOS>ATOM
      1 C6           2.5390     0.4950    -0.8500 ca         1 CK8       0.151900
      2 N1           1.7370     0.3970     0.2230 nb         1 CK8      -0.233000
      3 C2           0.4360     0.1700    -0.0260 ca         1 CK8       0.393900
      4 N3          -0.1400     0.0560    -1.2340 nb         1 CK8      -0.259000
      5 C4           0.6530     0.1520    -2.3210 ca         1 CK8       0.268500
      6 C5           2.0350     0.3760    -2.1540 ca         1 CK8      -0.285000
      7 C5A          0.0840     0.0280    -3.6760 cc         1 CK8      -0.322500
      8 C1A         -1.2300    -0.3310    -3.9550 cd         1 CK8       0.361300
      9 N2A         -1.5290    -0.3510    -5.3110 nd         1 CK8      -0.661000
     10 C3A         -0.4660    -0.0110    -6.0250 cc         1 CK8       0.451700
     11 S4A          0.9820     0.3570    -5.1340 ss         1 CK8      -0.030400
     12 C6A         -2.3440    -0.7080    -3.0100 c3         1 CK8      -0.117400
     13 C7A         -0.4770     0.0620    -7.5230 c3         1 CK8      -0.133400
     14 N7          -0.4480     0.0910     1.0440 nu         1 CK8      -0.926900
     15 C1B         -0.3050     0.0370     2.4380 ca         1 CK8       0.257000
     16 C2B          0.8510    -0.4700     3.0640 ca         1 CK8      -0.094500
     17 C3B          0.9430    -0.5180     4.4690 ca         1 CK8      -0.163000
     18 C4B         -0.1190    -0.0670     5.2790 ca         1 CK8       0.306000
     19 C5B         -1.2790     0.4260     4.6480 ca         1 CK8      -0.163000
     20 C6B         -1.3720     0.4720     3.2440 ca         1 CK8      -0.094500
     21 N7B         -0.0250    -0.1140     6.6950 nh         1 CK8      -0.811400
     22 C8B         -0.7790     0.8300     7.5530 c3         1 CK8       0.207100
     23 C9B          0.8340    -1.1080     7.3820 c3         1 CK8       0.207100
     24 H6           3.5970     0.6720    -0.6630 h4         1 CK8       0.021100
     25 H5           2.7090     0.4570    -3.0000 ha         1 CK8       0.136000
     26 H6A1        -2.0470    -1.5410    -2.3630 hc         1 CK8       0.056700
     27 H6A2        -2.6280     0.1410    -2.3780 hc         1 CK8       0.056700
     28 H6A3        -3.2420    -1.0240    -3.5530 hc         1 CK8       0.056700
     29 H7A1        -1.4280    -0.3000    -7.9310 hc         1 CK8       0.060367
     30 H7A2        -0.3330     1.0950    -7.8580 hc         1 CK8       0.060367
     31 H7A3         0.3280    -0.5510    -7.9440 hc         1 CK8       0.060367
     32 HN7         -1.4180     0.1520     0.7340 hn         1 CK8       0.507000
     33 H2B          1.6780    -0.8470     2.4730 ha         1 CK8       0.122000
     34 H3B          1.8520    -0.9040     4.9190 ha         1 CK8       0.112500
     35 H5B         -2.1230     0.7660     5.2400 ha         1 CK8       0.112500
     36 H6B         -2.2790     0.8550     2.7840 ha         1 CK8       0.122000
     37 H8B1        -0.2860     0.9530     8.5270 h1         1 CK8       0.034533
     38 H8B2        -0.8330     1.8210     7.0830 h1         1 CK8       0.034533
     39 H8B3        -1.8000     0.4630     7.7250 h1         1 CK8       0.034533
     40 H9B1         0.4760    -1.2920     8.4050 h1         1 CK8       0.034533
     41 H9B2         0.8160    -2.0680     6.8480 h1         1 CK8       0.034533
     42 H9B3         1.8700    -0.7500     7.4350 h1         1 CK8       0.034533
@<TRIPOS>BOND
     1     1     2 ar  
     2     1     6 ar  
     3     1    24 1   
     4     2     3 ar  
     5     3     4 ar  
     6     3    14 1   
     7     4     5 ar  
     8     5     6 ar  
     9     5     7 1   
    10     6    25 1   
    11     7     8 2   
    12     7    11 1   
    13     8     9 1   
    14     8    12 1   
    15     9    10 2   
    16    10    11 1   
    17    10    13 1   
    18    12    26 1   
    19    12    27 1   
    20    12    28 1   
    21    13    29 1   
    22    13    30 1   
    23    13    31 1   
    24    14    15 1   
    25    14    32 1   
    26    15    16 ar  
    27    15    20 ar  
    28    16    17 ar  
    29    16    33 1   
    30    17    18 ar  
    31    17    34 1   
    32    18    19 ar  
    33    18    21 1   
    34    19    20 ar  
    35    19    35 1   
    36    20    36 1   
    37    21    22 1   
    38    21    23 1   
    39    22    37 1   
    40    22    38 1   
    41    22    39 1   
    42    23    40 1   
    43    23    41 1   
    44    23    42 1   
@<TRIPOS>SUBSTRUCTURE
     1 CK8         1 TEMP              0 ****  ****    0 ROOT
