@<TRIPOS>MOLECULE
CK9
   53    55     1     0     0
SMALL
No Charge or Current Charge


@<TRIPOS>ATOM
      1 O27          3.0520     2.8010     1.2800 oh         1 CK9      -0.522100
      2 C24          3.3940     1.6590     0.6160 ca         1 CK9       0.157100
      3 C23          4.1090     1.7680    -0.5880 ca         1 CK9      -0.212000
      4 C22          4.4950     0.6140    -1.2900 ca         1 CK9      -0.060000
      5 C21          4.1690    -0.6520    -0.7810 ca         1 CK9      -0.151000
      6 C20          3.4530    -0.7660     0.4230 ca         1 CK9      -0.063000
      7 C19          3.0490     0.3880     1.1300 ca         1 CK9      -0.156300
      8 C18          2.2630     0.2450     2.4380 c3         1 CK9       0.283100
      9 N17          1.1570    -0.7230     2.3120 nu         1 CK9      -0.910100
     10 C4           0.0610    -0.6580     1.4630 ca         1 CK9       0.491900
     11 C5          -0.8850    -1.7030     1.4220 ca         1 CK9      -0.146600
     12 N9          -0.9200    -2.8930     2.1490 nc         1 CK9      -0.547100
     13 C8          -2.0400    -3.4760     1.6820 cd         1 CK9       0.384700
     14 C6          -1.9410    -1.5790     0.5540 ca         1 CK9       0.168500
     15 N7          -2.6990    -2.7110     0.7050 na         1 CK9      -0.288300
     16 C10         -3.9400    -3.0060    -0.0340 c3         1 CK9       0.093300
     17 C12         -3.7850    -4.2660    -0.9110 c3         1 CK9      -0.106100
     18 C11         -5.1500    -3.1130     0.9170 c3         1 CK9      -0.106100
     19 N3          -2.0910    -0.5050    -0.2450 nb         1 CK9      -0.300000
     20 C2          -1.1400     0.4410    -0.1330 ca         1 CK9       0.436900
     21 N1          -0.0710     0.4240     0.6810 nb         1 CK9      -0.354000
     22 N13         -1.2910     1.5310    -0.9690 nu         1 CK9      -0.908100
     23 C14         -0.4120     2.7130    -1.1060 c3         1 CK9       0.248500
     24 C25         -0.9400     3.8920    -0.2430 c3         1 CK9      -0.081400
     25 C26         -0.8880     3.6530     1.2830 c3         1 CK9      -0.088100
     26 C15         -0.2900     3.0970    -2.6160 c3         1 CK9       0.126600
     27 O16         -1.5810     3.3060    -3.2310 oh         1 CK9      -0.666000
     28 H27          3.4300     3.5630     0.7940 ho         1 CK9       0.463000
     29 H23          4.3730     2.7450    -0.9860 ha         1 CK9       0.113000
     30 H22          5.0490     0.7010    -2.2230 ha         1 CK9       0.114000
     31 H21          4.4710    -1.5470    -1.3200 ha         1 CK9       0.118000
     32 H20          3.2090    -1.7550     0.8040 ha         1 CK9       0.114000
     33 H181         1.8550     1.2160     2.7500 h1         1 CK9       0.067700
     34 H182         2.9560    -0.0790     3.2270 h1         1 CK9       0.067700
     35 H17          1.1920    -1.5740     2.8730 hn         1 CK9       0.509000
     36 H8          -2.4310    -4.4360     1.9990 h5         1 CK9       0.060800
     37 H10         -4.1360    -2.1640    -0.7120 h1         1 CK9       0.089700
     38 H121        -4.6910    -4.4370    -1.5050 hc         1 CK9       0.045033
     39 H122        -2.9430    -4.1500    -1.6040 hc         1 CK9       0.045033
     40 H123        -3.6050    -5.1550    -0.2950 hc         1 CK9       0.045033
     41 H111        -5.2610    -2.1920     1.5010 hc         1 CK9       0.045033
     42 H112        -6.0750    -3.2680     0.3480 hc         1 CK9       0.045033
     43 H113        -5.0300    -3.9520     1.6130 hc         1 CK9       0.045033
     44 H13         -2.0740     1.4820    -1.6190 hn         1 CK9       0.500000
     45 H14          0.6070     2.4710    -0.7690 h1         1 CK9       0.079700
     46 H251        -1.9700     4.1300    -0.5340 hc         1 CK9       0.048700
     47 H252        -0.3400     4.7820    -0.4660 hc         1 CK9       0.048700
     48 H261        -1.1960     4.5580     1.8200 hc         1 CK9       0.035033
     49 H262        -1.5630     2.8400     1.5770 hc         1 CK9       0.035033
     50 H263         0.1280     3.3940     1.6020 hc         1 CK9       0.035033
     51 H151         0.3250     4.0030    -2.7040 h1         1 CK9       0.033700
     52 H152         0.2440     2.2910    -3.1360 h1         1 CK9       0.033700
     53 H16         -1.4180     3.5330    -4.1740 ho         1 CK9       0.440000
@<TRIPOS>BOND
     1     1     2 1   
     2     1    28 1   
     3     2     3 ar  
     4     2     7 ar  
     5     3     4 ar  
     6     3    29 1   
     7     4     5 ar  
     8     4    30 1   
     9     5     6 ar  
    10     5    31 1   
    11     6     7 ar  
    12     6    32 1   
    13     7     8 1   
    14     8     9 1   
    15     8    33 1   
    16     8    34 1   
    17     9    10 1   
    18     9    35 1   
    19    10    11 ar  
    20    10    21 ar  
    21    11    12 1   
    22    11    14 ar  
    23    12    13 2   
    24    13    15 1   
    25    13    36 1   
    26    14    15 1   
    27    14    19 ar  
    28    15    16 1   
    29    16    17 1   
    30    16    18 1   
    31    16    37 1   
    32    17    38 1   
    33    17    39 1   
    34    17    40 1   
    35    18    41 1   
    36    18    42 1   
    37    18    43 1   
    38    19    20 ar  
    39    20    21 ar  
    40    20    22 1   
    41    22    23 1   
    42    22    44 1   
    43    23    24 1   
    44    23    26 1   
    45    23    45 1   
    46    24    25 1   
    47    24    46 1   
    48    24    47 1   
    49    25    48 1   
    50    25    49 1   
    51    25    50 1   
    52    26    27 1   
    53    26    51 1   
    54    26    52 1   
    55    27    53 1   
@<TRIPOS>SUBSTRUCTURE
     1 CK9         1 TEMP              0 ****  ****    0 ROOT
