@<TRIPOS>MOLECULE
CK9
   53    55     1     0     0
SMALL
bcc


@<TRIPOS>ATOM
      1 O27          2.3200     0.1310    -1.2110 oh         1 CK9      -0.483100
      2 C24          3.4980    -0.2130    -0.6600 ca         1 CK9       0.157100
      3 C23          4.6050    -0.5610    -1.4290 ca         1 CK9      -0.230000
      4 C22          5.8010    -0.9080    -0.8160 ca         1 CK9      -0.078000
      5 C21          5.9030    -0.9090     0.5670 ca         1 CK9      -0.169000
      6 C20          4.7930    -0.5610     1.3270 ca         1 CK9      -0.081000
      7 C19          3.5850    -0.2090     0.7380 ca         1 CK9      -0.156300
      8 C18          2.3930     0.1530     1.5850 c3         1 CK9       0.283100
      9 N17          1.3370    -0.8300     1.4840 nu         1 CK9      -0.854900
     10 C4           0.1040    -0.5860     1.0200 ca         1 CK9       0.820200
     11 C5          -0.8050    -1.6320     0.7650 ca         1 CK9      -0.277200
     12 N9          -0.7250    -2.9980     0.8770 nc         1 CK9      -0.547100
     13 C8          -1.8870    -3.4200     0.4720 cd         1 CK9       0.384700
     14 C6          -2.0460    -1.2480     0.2770 ca         1 CK9       0.496800
     15 N7          -2.7310    -2.4120     0.0900 na         1 CK9      -0.259000
     16 C10         -4.1020    -2.5450    -0.3910 c3         1 CK9       0.064000
     17 C12         -4.1700    -3.5100    -1.5660 c3         1 CK9      -0.106100
     18 C11         -5.0330    -2.9480     0.7440 c3         1 CK9      -0.106100
     19 N3          -2.4590    -0.0090     0.0330 nb         1 CK9      -0.826000
     20 C2          -1.5220     0.8960     0.3260 ca         1 CK9       0.962900
     21 N1          -0.2930     0.6620     0.8070 nb         1 CK9      -0.880000
     22 N13         -1.8650     2.1940     0.1370 nu         1 CK9      -0.852900
     23 C14         -0.9240     3.2950     0.1600 c3         1 CK9       0.248500
     24 C25         -1.6800     4.6060     0.3730 c3         1 CK9      -0.081400
     25 C26         -2.3950     4.6800     1.7150 c3         1 CK9      -0.088100
     26 C15         -0.0380     3.3280    -1.0790 c3         1 CK9       0.103400
     27 O16         -0.8400     3.5250    -2.2230 oh         1 CK9      -0.603800
     28 H27          2.3800     0.1090    -2.1720 ho         1 CK9       0.424000
     29 H23          4.5320    -0.5610    -2.5110 ha         1 CK9       0.131000
     30 H22          6.6520    -1.1780    -1.4270 ha         1 CK9       0.132000
     31 H21          6.8320    -1.1800     1.0500 ha         1 CK9       0.136000
     32 H20          4.8640    -0.5610     2.4080 ha         1 CK9       0.132000
     33 H181         1.9730     1.1140     1.2900 h1         1 CK9       0.067700
     34 H182         2.7130     0.2480     2.6260 h1         1 CK9       0.067700
     35 H17          1.5940    -1.7970     1.6070 hn         1 CK9       0.453800
     36 H8          -2.1870    -4.4570     0.4260 h5         1 CK9       0.060800
     37 H10         -4.3810    -1.5480    -0.7380 h1         1 CK9       0.089700
     38 H121        -5.1830    -3.5320    -1.9670 hc         1 CK9       0.045033
     39 H122        -3.4970    -3.2050    -2.3670 hc         1 CK9       0.045033
     40 H123        -3.9120    -4.5270    -1.2670 hc         1 CK9       0.045033
     41 H111        -4.9940    -2.2290     1.5620 hc         1 CK9       0.045033
     42 H112        -6.0610    -2.9930     0.3840 hc         1 CK9       0.045033
     43 H113        -4.7750    -3.9320     1.1390 hc         1 CK9       0.045033
     44 H13         -2.7220     2.3360    -0.3740 hn         1 CK9       0.444800
     45 H14         -0.2530     3.1430     1.0090 h1         1 CK9       0.079700
     46 H251        -2.3970     4.7600    -0.4380 hc         1 CK9       0.048700
     47 H252        -0.9580     5.4230     0.3000 hc         1 CK9       0.048700
     48 H261        -2.8870     5.6450     1.8390 hc         1 CK9       0.035033
     49 H262        -3.1570     3.9070     1.8110 hc         1 CK9       0.035033
     50 H263        -1.6930     4.5580     2.5420 hc         1 CK9       0.035033
     51 H151         0.6960     4.1370    -0.9520 h1         1 CK9       0.033700
     52 H152         0.5230     2.3890    -1.1340 h1         1 CK9       0.033700
     53 H16         -0.2800     3.4400    -2.9990 ho         1 CK9       0.401000
@<TRIPOS>BOND
     1     1     2 1   
     2     1    28 1   
     3     2     3 ar  
     4     2     7 ar  
     5     3     4 ar  
     6     3    29 1   
     7     4     5 ar  
     8     4    30 1   
     9     5     6 ar  
    10     5    31 1   
    11     6     7 ar  
    12     6    32 1   
    13     7     8 1   
    14     8     9 1   
    15     8    33 1   
    16     8    34 1   
    17     9    10 1   
    18     9    35 1   
    19    10    11 ar  
    20    10    21 ar  
    21    11    12 1   
    22    11    14 ar  
    23    12    13 2   
    24    13    15 1   
    25    13    36 1   
    26    14    15 1   
    27    14    19 ar  
    28    15    16 1   
    29    16    17 1   
    30    16    18 1   
    31    16    37 1   
    32    17    38 1   
    33    17    39 1   
    34    17    40 1   
    35    18    41 1   
    36    18    42 1   
    37    18    43 1   
    38    19    20 ar  
    39    20    21 ar  
    40    20    22 1   
    41    22    23 1   
    42    22    44 1   
    43    23    24 1   
    44    23    26 1   
    45    23    45 1   
    46    24    25 1   
    47    24    46 1   
    48    24    47 1   
    49    25    48 1   
    50    25    49 1   
    51    25    50 1   
    52    26    27 1   
    53    26    51 1   
    54    26    52 1   
    55    27    53 1   
@<TRIPOS>SUBSTRUCTURE
     1 CK9         1 TEMP              0 ****  ****    0 ROOT
