@<TRIPOS>MOLECULE
CKA
   20    21     1     0     0
SMALL
No Charge or Current Charge


@<TRIPOS>ATOM
      1 C4           1.5540    -1.8160    -0.0020 ca         1 CKA      -0.015000
      2 C5           2.7570    -1.0940     0.0130 ca         1 CKA      -0.190000
      3 C6           2.7270     0.3070     0.0280 ca         1 CKA       0.170000
      4 C7           1.5000     0.9860     0.0280 ca         1 CKA      -0.186000
      5 C8           0.2930     0.2690     0.0130 ca         1 CKA       0.337000
      6 C9          -2.1880     0.4050     0.0000 cc         1 CKA       0.073800
      7 C10         -3.5150     1.1560     0.0000 c          1 CKA       0.717200
      8 N1          -0.8970     0.9920     0.0140 na         1 CKA      -0.759000
      9 C3           0.3250    -1.1240    -0.0020 ca         1 CKA      -0.223600
     10 C1          -2.1510    -0.9840    -0.0150 cd         1 CKA      -0.391200
     11 C2          -0.9650    -1.8290    -0.0170 c          1 CKA       0.587900
     12 O1          -1.0480    -3.0510    -0.0310 o          1 CKA      -0.626100
     13 Cl1          4.2310     1.2160     0.0470 cl         1 CKA      -0.237000
     14 O2          -3.4820     2.3820     0.0140 o          1 CKA      -0.693000
     15 O3          -4.5700     0.5310    -0.0130 o          1 CKA      -0.693000
     16 H1           1.5790    -2.9050    -0.0140 ha         1 CKA       0.129000
     17 H2           3.7100    -1.6180     0.0130 ha         1 CKA       0.116000
     18 H3           1.4920     2.0710     0.0400 ha         1 CKA       0.127000
     19 H4          -3.0700    -1.5560    -0.0270 ha         1 CKA       0.222000
     20 H7          -0.8410     2.0110     0.0260 hn         1 CKA       0.534000
@<TRIPOS>BOND
     1     1     2 ar  
     2     1     9 ar  
     3     1    16 1   
     4     2     3 ar  
     5     2    17 1   
     6     3     4 ar  
     7     3    13 1   
     8     4     5 ar  
     9     4    18 1   
    10     5     8 1   
    11     5     9 ar  
    12     6     7 1   
    13     6     8 1   
    14     6    10 2   
    15     7    14 1   
    16     7    15 1   
    17     8    20 1   
    18     9    11 1   
    19    10    11 1   
    20    10    19 1   
    21    11    12 2   
@<TRIPOS>SUBSTRUCTURE
     1 CKA         1 TEMP              0 ****  ****    0 ROOT
