@<TRIPOS>MOLECULE
CKA
   20    21     1     0     0
SMALL
bcc


@<TRIPOS>ATOM
      1 C4           1.5220    -1.7650     0.0000 ca         1 CKA      -0.033000
      2 C5           2.7020    -1.0600     0.0150 ca         1 CKA      -0.208000
      3 C6           2.6490     0.3380     0.0280 ca         1 CKA       0.078400
      4 C7           1.4580     1.0210     0.0260 ca         1 CKA      -0.204000
      5 C8           0.2620     0.2870     0.0130 ca         1 CKA       0.198600
      6 C9          -2.1140     0.2820     0.0010 cc         1 CKA       0.073800
      7 C10         -3.3540     1.1850     0.0030 c          1 CKA       0.927800
      8 N1          -0.9350     0.9340     0.0130 na         1 CKA      -0.565400
      9 C3           0.2820    -1.1150    -0.0020 ca         1 CKA      -0.223600
     10 C1          -2.1660    -1.0770    -0.0140 cd         1 CKA      -0.341200
     11 C2          -0.9740    -1.8790    -0.0200 c          1 CKA       0.587900
     12 O1          -0.9810    -3.1120    -0.0410 o          1 CKA      -0.626100
     13 CL1          4.1310     1.2290     0.0450 cl         1 CKA      -0.145400
     14 O2          -3.1070     2.4040     0.0200 o          1 CKA      -0.798300
     15 O3          -4.4500     0.6130    -0.0110 o          1 CKA      -0.798300
     16 H1           1.5470    -2.8460    -0.0100 ha         1 CKA       0.147000
     17 H2           3.6540    -1.5730     0.0180 ha         1 CKA       0.134000
     18 H3           1.4310     2.1030     0.0360 ha         1 CKA       0.145000
     19 H4          -3.1310    -1.5650    -0.0260 ha         1 CKA       0.172000
     20 H7          -0.9840     1.9460     0.0220 hn         1 CKA       0.478800
@<TRIPOS>BOND
     1     1     2 ar  
     2     1     9 ar  
     3     1    16 1   
     4     2     3 ar  
     5     2    17 1   
     6     3     4 ar  
     7     3    13 1   
     8     4     5 ar  
     9     4    18 1   
    10     5     8 1   
    11     5     9 ar  
    12     6     7 1   
    13     6     8 1   
    14     6    10 2   
    15     7    14 1   
    16     7    15 1   
    17     8    20 1   
    18     9    11 1   
    19    10    11 1   
    20    10    19 1   
    21    11    12 2   
@<TRIPOS>SUBSTRUCTURE
     1 CKA         1 TEMP              0 ****  ****    0 ROOT
