@<TRIPOS>MOLECULE
CKB
   36    37     1     0     0
SMALL
abcg2


@<TRIPOS>ATOM
      1 C2           1.4950    -0.0870    -1.2400 c          1 CKB       0.628000
      2 C4           3.8320    -0.2330    -0.4270 c          1 CKB       0.590200
      3 C5           3.3330    -0.0880     0.9260 cc         1 CKB      -0.263400
      4 C6           2.0080     0.0420     1.0960 cd         1 CKB       0.008600
      5 C7           4.3080    -0.0890     2.0580 c3         1 CKB      -0.018900
      6 N1           1.0920     0.0470     0.0730 n          1 CKB      -0.296000
      7 N3           2.8510    -0.2160    -1.4010 ns         1 CKB      -0.468500
      8 C1          -0.3160     0.2030     0.3940 c6         1 CKB       0.357700
      9 C8          -0.9350     1.4730    -0.1840 c6         1 CKB       0.124300
     10 C3          -2.3970     1.5050     0.2420 c6         1 CKB       0.097300
     11 C9          -3.1010     0.2170    -0.1800 c6         1 CKB       0.113300
     12 C10         -2.3470    -0.9860     0.3890 c6         1 CKB       0.182300
     13 C11         -2.9200    -2.3010    -0.0920 c3         1 CKB       0.171600
     14 O6          -2.2410    -3.3540     0.5500 oh         1 CKB      -0.711000
     15 O2          -0.2010     2.5520     0.3310 oh         1 CKB      -0.715000
     16 O3          -2.9980     2.6360    -0.3530 oh         1 CKB      -0.663000
     17 O4          -4.4200     0.1730     0.3070 oh         1 CKB      -0.718000
     18 O5          -0.9920    -0.9410    -0.0240 os         1 CKB      -0.433000
     19 O1           0.7350    -0.0920    -2.1830 o          1 CKB      -0.548000
     20 O7           5.0040    -0.3610    -0.7300 o          1 CKB      -0.530000
     21 H6           1.5830     0.1500     2.0840 h4         1 CKB       0.204000
     22 H7           4.8880    -1.0130     2.0800 hc         1 CKB       0.046700
     23 H7A          5.0160     0.7350     1.9710 hc         1 CKB       0.046700
     24 H7B          3.7960     0.0080     3.0140 hc         1 CKB       0.046700
     25 HN3          3.1590    -0.3220    -2.3600 hn         1 CKB       0.342500
     26 H1          -0.3580     0.2900     1.4890 h2         1 CKB       0.050700
     27 H2          -0.8930     1.4430    -1.2790 h1         1 CKB       0.091700
     28 H3          -2.4400     1.5780     1.3390 h1         1 CKB       0.051700
     29 H4          -3.0820     0.1490    -1.2790 h1         1 CKB       0.067700
     30 H5          -2.4040    -0.9490     1.4900 h1         1 CKB       0.059700
     31 H8          -3.9910    -2.3120     0.1330 h1         1 CKB       0.040200
     32 H6'A        -2.8190    -2.3530    -1.1850 h1         1 CKB       0.040200
     33 HO6         -2.6590    -4.1790     0.2880 ho         1 CKB       0.507000
     34 HO2         -0.6090     3.3660     0.0150 ho         1 CKB       0.525000
     35 HO3         -3.6250     3.0230     0.2650 ho         1 CKB       0.453000
     36 HO4         -4.9420     0.8250    -0.1690 ho         1 CKB       0.515000
@<TRIPOS>BOND
     1     1     6 1   
     2     1     7 1   
     3     1    19 2   
     4     2     3 1   
     5     2     7 1   
     6     2    20 2   
     7     3     4 2   
     8     3     5 1   
     9     4     6 1   
    10     4    21 1   
    11     5    22 1   
    12     5    23 1   
    13     5    24 1   
    14     6     8 1   
    15     7    25 1   
    16     8     9 1   
    17     8    18 1   
    18     8    26 1   
    19     9    10 1   
    20     9    15 1   
    21     9    27 1   
    22    10    11 1   
    23    10    16 1   
    24    10    28 1   
    25    11    12 1   
    26    11    17 1   
    27    11    29 1   
    28    12    13 1   
    29    12    18 1   
    30    12    30 1   
    31    13    14 1   
    32    13    31 1   
    33    13    32 1   
    34    14    33 1   
    35    15    34 1   
    36    16    35 1   
    37    17    36 1   
@<TRIPOS>SUBSTRUCTURE
     1 CKB         1 TEMP              0 ****  ****    0 ROOT
