@<TRIPOS>MOLECULE
CKB
   36    37     1     0     0
SMALL
No Charge or Current Charge


@<TRIPOS>ATOM
      1 C2           1.5450    -0.2630    -1.1590 c          1 CKB       0.628000
      2 C4           3.8830    -0.4060    -0.4500 c          1 CKB       0.590200
      3 C5           3.4440    -0.0580     0.9190 cc         1 CKB      -0.263400
      4 C6           2.1070     0.1570     1.1770 cd         1 CKB       0.008600
      5 C7           4.5340     0.0380     1.9630 c3         1 CKB      -0.018900
      6 N1           1.1560     0.0460     0.1610 n          1 CKB      -0.296000
      7 N3           2.8740    -0.4710    -1.3550 ns         1 CKB      -0.468500
      8 C1          -0.2770     0.2160     0.5130 c6         1 CKB       0.357700
      9 C8          -0.8750     1.5660    -0.0080 c6         1 CKB       0.124300
     10 C3          -2.3840     1.6240     0.3550 c6         1 CKB       0.097300
     11 C9          -3.1290     0.3650    -0.1830 c6         1 CKB       0.113300
     12 C10         -2.4250    -0.9180     0.3760 c6         1 CKB       0.182300
     13 C11         -3.0610    -2.2460    -0.1540 c3         1 CKB       0.171600
     14 O6          -2.3860    -3.4320     0.3170 oh         1 CKB      -0.711000
     15 O2          -0.2090     2.7270     0.5390 oh         1 CKB      -0.715000
     16 O3          -2.9810     2.8250    -0.1650 oh         1 CKB      -0.663000
     17 O4          -4.5220     0.4360     0.1950 oh         1 CKB      -0.718000
     18 O5          -1.0220    -0.9110     0.0030 os         1 CKB      -0.433000
     19 O1           0.7760    -0.3240    -2.1040 o          1 CKB      -0.548000
     20 O7           5.0380    -0.6200    -0.7800 o          1 CKB      -0.530000
     21 H6           1.7060     0.4180     2.1530 h4         1 CKB       0.204000
     22 H7           5.0620    -0.9170     2.0700 hc         1 CKB       0.046700
     23 H7A          5.2710     0.8050     1.6940 hc         1 CKB       0.046700
     24 H7B          4.1240     0.3020     2.9450 hc         1 CKB       0.046700
     25 HN3          3.1450    -0.6940    -2.2990 hn         1 CKB       0.342500
     26 H1          -0.3560     0.2090     1.6100 h2         1 CKB       0.050700
     27 H2          -0.7900     1.5690    -1.1050 h1         1 CKB       0.091700
     28 H3          -2.4710     1.6180     1.4520 h1         1 CKB       0.051700
     29 H4          -3.0350     0.3540    -1.2810 h1         1 CKB       0.067700
     30 H5          -2.4970    -0.9220     1.4740 h1         1 CKB       0.059700
     31 H8          -4.1150    -2.2700     0.1570 h1         1 CKB       0.040200
     32 H6'A        -3.0460    -2.2150    -1.2520 h1         1 CKB       0.040200
     33 HO6         -2.8130    -4.2020    -0.1270 ho         1 CKB       0.507000
     34 HO2         -0.8540     3.4660     0.4130 ho         1 CKB       0.525000
     35 HO3         -3.9530     2.6750    -0.1040 ho         1 CKB       0.453000
     36 HO4         -5.0510    -0.0090    -0.5100 ho         1 CKB       0.515000
@<TRIPOS>BOND
     1     1     6 1   
     2     1     7 1   
     3     1    19 2   
     4     2     3 1   
     5     2     7 1   
     6     2    20 2   
     7     3     4 2   
     8     3     5 1   
     9     4     6 1   
    10     4    21 1   
    11     5    22 1   
    12     5    23 1   
    13     5    24 1   
    14     6     8 1   
    15     7    25 1   
    16     8     9 1   
    17     8    18 1   
    18     8    26 1   
    19     9    10 1   
    20     9    15 1   
    21     9    27 1   
    22    10    11 1   
    23    10    16 1   
    24    10    28 1   
    25    11    12 1   
    26    11    17 1   
    27    11    29 1   
    28    12    13 1   
    29    12    18 1   
    30    12    30 1   
    31    13    14 1   
    32    13    31 1   
    33    13    32 1   
    34    14    33 1   
    35    15    34 1   
    36    16    35 1   
    37    17    36 1   
@<TRIPOS>SUBSTRUCTURE
     1 CKB         1 TEMP              0 ****  ****    0 ROOT
