@<TRIPOS>MOLECULE
CKC
   26    25     1     0     0
SMALL
bcc


@<TRIPOS>ATOM
      1 CAK         -2.8440     1.7400     0.3320 c3         1 CKC      -0.200100
      2 CAO         -2.7250     0.2750     0.0020 c          1 CKC       0.534100
      3 OAF         -3.5850    -0.3050    -0.6230 o          1 CKC      -0.529100
      4 CAR         -1.4670    -0.4410     0.4810 c3         1 CKC       0.064500
      5 NAC         -1.4720    -1.8700     0.2760 n8         1 CKC      -0.874800
      6 CAL         -0.2350     0.1990    -0.1750 c3         1 CKC      -0.062400
      7 CAH          1.0830    -0.3400     0.3630 c3         1 CKC      -0.071400
      8 CAG          2.2880     0.3340    -0.2800 c3         1 CKC      -0.080400
      9 CAI          3.6110    -0.1820     0.2650 c3         1 CKC       0.149800
     10 NAM          4.7370     0.4770    -0.3820 n8         1 CKC      -0.885800
     11 H1          -2.2550     2.0210     1.2040 hc         1 CKC       0.062033
     12 H2          -2.4780     2.3290    -0.5130 hc         1 CKC       0.062033
     13 H3          -1.3990    -0.2470     1.5600 h1         1 CKC       0.073700
     14 H4          -2.2810    -2.2830     0.7230 hn         1 CKC       0.350800
     15 H5          -1.5710    -2.0730    -0.7120 hn         1 CKC       0.350800
     16 H7          -0.2860     0.0430    -1.2580 hc         1 CKC       0.041700
     17 H8          -0.2630     1.2810    -0.0230 hc         1 CKC       0.041700
     18 H9           1.1150    -0.1930     1.4480 hc         1 CKC       0.048700
     19 H10          1.1340    -1.4190     0.2000 hc         1 CKC       0.048700
     20 H11          2.2640     0.1840    -1.3640 hc         1 CKC       0.043200
     21 H12          2.2290     1.4170    -0.1170 hc         1 CKC       0.043200
     22 H13          3.6090    -0.0730     1.3600 h1         1 CKC       0.027700
     23 H14          3.6840    -1.2550     0.0680 h1         1 CKC       0.027700
     24 H15          4.7370     1.4580    -0.1300 hn         1 CKC       0.335800
     25 H16          5.6030     0.1040    -0.0160 hn         1 CKC       0.335800
     26 H18         -3.8850     2.0130     0.4950 hc         1 CKC       0.062033
@<TRIPOS>BOND
     1     1     2 1   
     2     1    11 1   
     3     1    12 1   
     4     1    26 1   
     5     2     3 2   
     6     2     4 1   
     7     4     5 1   
     8     4     6 1   
     9     4    13 1   
    10     5    14 1   
    11     5    15 1   
    12     6     7 1   
    13     6    16 1   
    14     6    17 1   
    15     7     8 1   
    16     7    18 1   
    17     7    19 1   
    18     8     9 1   
    19     8    20 1   
    20     8    21 1   
    21     9    10 1   
    22     9    22 1   
    23     9    23 1   
    24    10    24 1   
    25    10    25 1   
@<TRIPOS>SUBSTRUCTURE
     1 CKC         1 TEMP              0 ****  ****    0 ROOT
