@<TRIPOS>MOLECULE
CKC
   26    25     1     0     0
SMALL
No Charge or Current Charge


@<TRIPOS>ATOM
      1 CAK         -3.0390     1.7390     0.4930 c3         1 CKC      -0.200100
      2 CAO         -2.7700     0.3520    -0.0980 c          1 CKC       0.534100
      3 OAF         -3.6010    -0.1950    -0.8170 o          1 CKC      -0.529100
      4 CAR         -1.4800    -0.3940     0.4070 c3         1 CKC       0.064500
      5 NAC         -1.5300    -1.8950     0.3150 n8         1 CKC      -0.985200
      6 CAL         -0.2090     0.1550    -0.2970 c3         1 CKC      -0.062400
      7 CAH          1.1260    -0.3150     0.3340 c3         1 CKC      -0.071400
      8 CAG          2.3680     0.2960    -0.3530 c3         1 CKC      -0.080400
      9 CAI          3.6940    -0.1770     0.2770 c3         1 CKC       0.149800
     10 NAM          4.8600     0.4210    -0.4000 n8         1 CKC      -0.996200
     11 H1          -2.8880     1.7070     1.5780 hc         1 CKC       0.062033
     12 H2          -2.2490     2.4250     0.1700 hc         1 CKC       0.062033
     13 H3          -1.3930    -0.1380     1.4730 h1         1 CKC       0.073700
     14 H4          -2.3580    -2.2410     0.8190 hn         1 CKC       0.406000
     15 H5          -1.7310    -2.1620    -0.6580 hn         1 CKC       0.406000
     16 H7          -0.2310    -0.1270    -1.3580 hc         1 CKC       0.041700
     17 H8          -0.2290     1.2510    -0.2680 hc         1 CKC       0.041700
     18 H9           1.1350    -0.0460     1.3980 hc         1 CKC       0.048700
     19 H10          1.1930    -1.4090     0.2800 hc         1 CKC       0.048700
     20 H11          2.3590     0.0270    -1.4170 hc         1 CKC       0.043200
     21 H12          2.3090     1.3900    -0.2960 hc         1 CKC       0.043200
     22 H13          3.7210     0.1050     1.3390 h1         1 CKC       0.027700
     23 H14          3.7690    -1.2710     0.2060 h1         1 CKC       0.027700
     24 H15          4.8370     1.4390    -0.2640 hn         1 CKC       0.391000
     25 H16          5.7150     0.1320     0.0900 hn         1 CKC       0.391000
     26 H18         -4.0320     2.1240     0.2320 hc         1 CKC       0.062033
@<TRIPOS>BOND
     1     1     2 1   
     2     1    11 1   
     3     1    12 1   
     4     1    26 1   
     5     2     3 2   
     6     2     4 1   
     7     4     5 1   
     8     4     6 1   
     9     4    13 1   
    10     5    14 1   
    11     5    15 1   
    12     6     7 1   
    13     6    16 1   
    14     6    17 1   
    15     7     8 1   
    16     7    18 1   
    17     7    19 1   
    18     8     9 1   
    19     8    20 1   
    20     8    21 1   
    21     9    10 1   
    22     9    22 1   
    23     9    23 1   
    24    10    24 1   
    25    10    25 1   
@<TRIPOS>SUBSTRUCTURE
     1 CKC         1 TEMP              0 ****  ****    0 ROOT
