@<TRIPOS>MOLECULE
CKD
   75    79     1     0     0
SMALL
No Charge or Current Charge


@<TRIPOS>ATOM
      1 C2           3.8300    -0.4490    -0.8680 c6         1 CKD       0.185500
      2 C3           2.4850    -1.5220     1.7010 ca         1 CKD      -0.291500
      3 C5           0.1600    -0.9800     2.2140 ca         1 CKD      -0.135000
      4 C7           0.7050    -3.1000     1.1560 ca         1 CKD      -0.135000
      5 C9           5.4570    -2.2730    -0.3440 c6         1 CKD       0.154800
      6 C10          3.3070     0.9750    -0.4750 c3         1 CKD      -0.091400
      7 C11          2.3630     1.6610    -1.4920 c3         1 CKD      -0.021100
      8 C12          1.5860     2.8130    -0.8450 ca         1 CKD      -0.130300
      9 C13          0.2710     2.6350    -0.3430 ca         1 CKD      -0.019000
     10 C15          0.2520     4.9360     0.4730 ca         1 CKD      -0.074000
     11 C18         -0.9840     0.8530    -1.6080 c          1 CKD       0.604100
     12 C20         -3.2110    -0.3180    -1.3050 c3         1 CKD       0.047900
     13 C21         -4.0070    -1.6300    -1.2120 ca         1 CKD      -0.094300
     14 C22         -5.4010    -1.5810    -1.4290 ca         1 CKD      -0.079500
     15 C30         -4.1700     2.3400     1.9970 ca         1 CKD       0.173500
     16 C29         -3.7510     1.0280     2.2580 ca         1 CKD      -0.150750
     17 C28         -3.4540     0.1630     1.1910 ca         1 CKD      -0.079500
     18 C31         -4.2950     2.7940     0.6760 ca         1 CKD      -0.150750
     19 C32         -3.9970     1.9310    -0.3930 ca         1 CKD      -0.079500
     20 C27         -3.5730     0.6090    -0.1420 ca         1 CKD      -0.094300
     21 C26         -3.4080    -2.8750    -0.9030 ca         1 CKD      -0.079500
     22 C25         -4.1920    -4.0400    -0.8200 ca         1 CKD      -0.150750
     23 C24         -5.5740    -3.9730    -1.0420 ca         1 CKD       0.173500
     24 F1          -6.3240    -5.0940    -0.9610 f          1 CKD      -0.176500
     25 C23         -6.1810    -2.7470    -1.3460 ca         1 CKD      -0.150750
     26 C19         -1.6740    -0.4940    -1.3870 c3         1 CKD      -0.158400
     27 O2          -0.9320     1.3850    -2.7110 o          1 CKD      -0.571100
     28 N2          -0.4210     1.4110    -0.4730 ns         1 CKD      -0.185000
     29 C14         -0.3790     3.6910     0.3210 ca         1 CKD      -0.112000
     30 C16          1.5460     5.1260    -0.0340 ca         1 CKD      -0.147000
     31 C17          2.2080     4.0720    -0.6820 ca         1 CKD       0.185000
     32 F            3.4650     4.2770    -1.1390 f          1 CKD      -0.176000
     33 C1           4.4940    -0.3650    -2.2950 c6         1 CKD       0.149800
     34 N            5.1170    -1.6370    -2.7500 n7         1 CKD      -0.838400
     35 N1           4.7760    -1.0330     0.1550 n3         1 CKD      -0.724500
     36 C            6.1030    -2.1090    -1.7480 c6         1 CKD       0.150800
     37 S            4.2490    -1.1280     1.7950 sy         1 CKD       1.146600
     38 O            4.4560     0.1970     2.3910 o          1 CKD      -0.528500
     39 O1           4.9080    -2.3080     2.3680 o          1 CKD      -0.528500
     40 C8           2.0690    -2.7610     1.1690 ca         1 CKD      -0.022500
     41 C6          -0.2480    -2.2150     1.6840 ca         1 CKD      -0.067000
     42 C4           1.5230    -0.6340     2.2290 ca         1 CKD      -0.022500
     43 H1           2.9530    -1.1060    -0.9580 h1         1 CKD       0.027700
     44 H2          -0.5770    -0.2960     2.6280 ha         1 CKD       0.123000
     45 H3           0.3890    -4.0580     0.7480 ha         1 CKD       0.123000
     46 H4           6.2640    -2.5750     0.3410 h1         1 CKD       0.060700
     47 H5           4.7450    -3.1100    -0.3860 h1         1 CKD       0.060700
     48 H6           2.7550     0.9260     0.4640 hc         1 CKD       0.066200
     49 H7           4.1580     1.6400    -0.2850 hc         1 CKD       0.066200
     50 H8           2.9490     2.0350    -2.3410 hc         1 CKD       0.057700
     51 H9           1.6900     0.9080    -1.9150 hc         1 CKD       0.057700
     52 H10         -0.2610     5.7500     0.9830 ha         1 CKD       0.124000
     53 H11         -3.5140     0.1640    -2.2440 hc         1 CKD       0.083700
     54 H12         -5.8820    -0.6330    -1.6610 ha         1 CKD       0.117000
     55 H14         -3.1320    -0.8540     1.4010 ha         1 CKD       0.117000
     56 H15         -4.6200     3.8130     0.4820 ha         1 CKD       0.133250
     57 H16         -4.0890     2.2950    -1.4140 ha         1 CKD       0.117000
     58 H17         -2.3400    -2.9590    -0.7230 ha         1 CKD       0.117000
     59 H18         -3.7280    -4.9940    -0.5830 ha         1 CKD       0.133250
     60 H19         -7.2540    -2.7010    -1.5140 ha         1 CKD       0.133250
     61 H20         -1.4380    -1.1530    -2.2310 hc         1 CKD       0.063700
     62 H21         -1.3190    -0.9310    -0.4490 hc         1 CKD       0.063700
     63 H22         -0.5600     0.8960     0.3860 hn         1 CKD       0.158000
     64 H23         -1.3840     3.5490     0.7140 ha         1 CKD       0.131000
     65 H24          2.0430     6.0860     0.0820 ha         1 CKD       0.137000
     66 H25          3.7410    -0.0610    -3.0370 h1         1 CKD       0.068200
     67 H26          5.2630     0.4230    -2.2780 h1         1 CKD       0.068200
     68 H27          4.3770    -2.3450    -2.8300 hn         1 CKD       0.403000
     69 H29          6.9310    -1.3880    -1.6770 h1         1 CKD       0.068200
     70 H30          6.5310    -3.0700    -2.0680 h1         1 CKD       0.068200
     71 H31          2.7980    -3.4680     0.7790 ha         1 CKD       0.135000
     72 H32         -1.3010    -2.4900     1.6870 ha         1 CKD       0.120000
     73 H33          1.8250     0.3180     2.6650 ha         1 CKD       0.135000
     74 H13         -3.6580     0.6820     3.2840 ha         1 CKD       0.133250
     75 F2          -4.4540     3.1720     3.0230 f          1 CKD      -0.176500
@<TRIPOS>BOND
     1     1     6 1   
     2     1    33 1   
     3     1    35 1   
     4     1    43 1   
     5     2    37 1   
     6     2    40 ar  
     7     2    42 ar  
     8     3    41 ar  
     9     3    42 ar  
    10     3    44 1   
    11     4    40 ar  
    12     4    41 ar  
    13     4    45 1   
    14     5    35 1   
    15     5    36 1   
    16     5    46 1   
    17     5    47 1   
    18     6     7 1   
    19     6    48 1   
    20     6    49 1   
    21     7     8 1   
    22     7    50 1   
    23     7    51 1   
    24     8     9 ar  
    25     8    31 ar  
    26     9    28 1   
    27     9    29 ar  
    28    10    29 ar  
    29    10    30 ar  
    30    10    52 1   
    31    11    26 1   
    32    11    27 2   
    33    11    28 1   
    34    12    13 1   
    35    12    20 1   
    36    12    26 1   
    37    12    53 1   
    38    13    14 ar  
    39    13    21 ar  
    40    14    25 ar  
    41    14    54 1   
    42    15    16 ar  
    43    15    18 ar  
    44    15    75 1   
    45    16    17 ar  
    46    16    74 1   
    47    17    20 ar  
    48    17    55 1   
    49    18    19 ar  
    50    18    56 1   
    51    19    20 ar  
    52    19    57 1   
    53    21    22 ar  
    54    21    58 1   
    55    22    23 ar  
    56    22    59 1   
    57    23    24 1   
    58    23    25 ar  
    59    25    60 1   
    60    26    61 1   
    61    26    62 1   
    62    28    63 1   
    63    29    64 1   
    64    30    31 ar  
    65    30    65 1   
    66    31    32 1   
    67    33    34 1   
    68    33    66 1   
    69    33    67 1   
    70    34    36 1   
    71    34    68 1   
    72    35    37 1   
    73    36    69 1   
    74    36    70 1   
    75    37    38 2   
    76    37    39 2   
    77    40    71 1   
    78    41    72 1   
    79    42    73 1   
@<TRIPOS>SUBSTRUCTURE
     1 CKD         1 TEMP              0 ****  ****    0 ROOT
