@<TRIPOS>MOLECULE
CKD
   75    79     1     0     0
SMALL
abcg2


@<TRIPOS>ATOM
      1 C2           3.5950    -0.5530    -1.0530 c6         1 CKD       0.185500
      2 C3           2.2470    -1.5530     1.7320 ca         1 CKD      -0.291500
      3 C5           0.2590    -0.5710     2.6360 ca         1 CKD      -0.135000
      4 C7           0.1650    -2.7250     1.5640 ca         1 CKD      -0.135000
      5 C9           4.3870    -2.8500    -0.8120 c6         1 CKD       0.154800
      6 C10          3.4180     0.8510    -0.4760 c3         1 CKD      -0.091400
      7 C11          2.6710     1.7650    -1.4590 c3         1 CKD      -0.021100
      8 C12          2.0490     2.9400    -0.7610 ca         1 CKD      -0.130300
      9 C13          0.7780     2.8620    -0.1840 ca         1 CKD      -0.019000
     10 C15          0.8940     5.1530     0.5250 ca         1 CKD      -0.074000
     11 C18         -1.0290     1.4530    -1.0200 c          1 CKD       0.604100
     12 C20         -3.0890    -0.0220    -1.1090 c3         1 CKD       0.047900
     13 C21         -3.5240    -1.4650    -1.2540 ca         1 CKD      -0.094300
     14 C22         -3.7380    -2.0030    -2.5190 ca         1 CKD      -0.079500
     15 C30         -5.2410     1.8850     2.0700 ca         1 CKD       0.173500
     16 C29         -3.9070     1.6010     2.2670 ca         1 CKD      -0.150750
     17 C28         -3.1980     0.9900     1.2390 ca         1 CKD      -0.079500
     18 C31         -5.8850     1.5810     0.8840 ca         1 CKD      -0.150750
     19 C32         -5.1580     0.9740    -0.1250 ca         1 CKD      -0.079500
     20 C27         -3.8060     0.6670     0.0310 ca         1 CKD      -0.094300
     21 C26         -3.6710    -2.2970    -0.1480 ca         1 CKD      -0.079500
     22 C25         -4.0170    -3.6330    -0.2920 ca         1 CKD      -0.150750
     23 C24         -4.2210    -4.1280    -1.5660 ca         1 CKD       0.173500
     24 F1          -4.5620    -5.4190    -1.7160 f          1 CKD      -0.176500
     25 C23         -4.0900    -3.3350    -2.6880 ca         1 CKD      -0.150750
     26 C19         -1.5640     0.0380    -1.0180 c3         1 CKD      -0.158400
     27 O2          -1.5250     2.3420    -1.6840 o          1 CKD      -0.571100
     28 N2           0.0690     1.6390    -0.2460 ns         1 CKD      -0.185000
     29 C14          0.2010     3.9550     0.4490 ca         1 CKD      -0.112000
     30 C16          2.1670     5.2580    -0.0160 ca         1 CKD      -0.147000
     31 C17          2.7130     4.1510    -0.6340 ca         1 CKD       0.185000
     32 F            3.9500     4.2540    -1.1500 f          1 CKD      -0.176000
     33 C1           4.4130    -0.4780    -2.3530 c6         1 CKD       0.149800
     34 N            4.6650    -1.7420    -3.0070 n7         1 CKD      -0.838400
     35 N1           4.2690    -1.5320    -0.1690 n3         1 CKD      -0.724500
     36 C            5.2130    -2.7070    -2.0790 c6         1 CKD       0.150800
     37 S            4.0080    -1.5230     1.4690 sy         1 CKD       1.146600
     38 O            4.5190    -0.2780     2.0150 o          1 CKD      -0.528500
     39 O1           4.5420    -2.7720     1.9900 o          1 CKD      -0.528500
     40 C8           1.5290    -2.6710     1.3230 ca         1 CKD      -0.022500
     41 C6          -0.4680    -1.6820     2.2280 ca         1 CKD      -0.067000
     42 C4           1.6240    -0.4990     2.3880 ca         1 CKD      -0.022500
     43 H1           2.5940    -0.9500    -1.2910 h1         1 CKD       0.027700
     44 H2          -0.2280     0.2370     3.1670 ha         1 CKD       0.123000
     45 H3          -0.4000    -3.5910     1.2450 ha         1 CKD       0.123000
     46 H4           4.8770    -3.5490    -0.1410 h1         1 CKD       0.060700
     47 H5           3.3950    -3.2490    -1.0630 h1         1 CKD       0.060700
     48 H6           2.8430     0.8210     0.4490 hc         1 CKD       0.066200
     49 H7           4.3850     1.2860    -0.2160 hc         1 CKD       0.066200
     50 H8           3.3380     2.1150    -2.2460 hc         1 CKD       0.057700
     51 H9           1.8840     1.1960    -1.9600 hc         1 CKD       0.057700
     52 H10          0.4480     6.0070     1.0160 ha         1 CKD       0.124000
     53 H11         -3.3770     0.4950    -2.0290 hc         1 CKD       0.083700
     54 H12         -3.6310    -1.3720    -3.3940 ha         1 CKD       0.117000
     55 H14         -2.1510     0.7740     1.4060 ha         1 CKD       0.117000
     56 H15         -6.9330     1.8160     0.7500 ha         1 CKD       0.133250
     57 H16         -5.6550     0.7300    -1.0560 ha         1 CKD       0.117000
     58 H17         -3.5300    -1.9030     0.8510 ha         1 CKD       0.117000
     59 H18         -4.1300    -4.2740     0.5730 ha         1 CKD       0.133250
     60 H19         -4.2620    -3.7430    -3.6750 ha         1 CKD       0.133250
     61 H20         -1.1470    -0.4640    -1.8970 hc         1 CKD       0.063700
     62 H21         -1.1990    -0.5270    -0.1570 hc         1 CKD       0.063700
     63 H22          0.4390     0.8470     0.2600 hn         1 CKD       0.158000
     64 H23         -0.7820     3.8610     0.8890 ha         1 CKD       0.131000
     65 H24          2.7280     6.1810     0.0430 ha         1 CKD       0.137000
     66 H25          3.8940     0.1690    -3.0600 h1         1 CKD       0.068200
     67 H26          5.3710    -0.0020    -2.1170 h1         1 CKD       0.068200
     68 H27          3.7990    -2.0990    -3.3940 hn         1 CKD       0.403000
     69 H29          6.2280    -2.4020    -1.8080 h1         1 CKD       0.068200
     70 H30          5.2850    -3.6810    -2.5660 h1         1 CKD       0.068200
     71 H31          2.0150    -3.5050     0.8340 ha         1 CKD       0.135000
     72 H32         -1.5270    -1.7420     2.4410 ha         1 CKD       0.120000
     73 H33          2.1870     0.3630     2.7200 ha         1 CKD       0.135000
     74 H13         -3.4220     1.8530     3.2010 ha         1 CKD       0.133250
     75 F2          -5.9350     2.4770     3.0560 f          1 CKD      -0.176500
@<TRIPOS>BOND
     1     1     6 1   
     2     1    33 1   
     3     1    35 1   
     4     1    43 1   
     5     2    37 1   
     6     2    40 ar  
     7     2    42 ar  
     8     3    41 ar  
     9     3    42 ar  
    10     3    44 1   
    11     4    40 ar  
    12     4    41 ar  
    13     4    45 1   
    14     5    35 1   
    15     5    36 1   
    16     5    46 1   
    17     5    47 1   
    18     6     7 1   
    19     6    48 1   
    20     6    49 1   
    21     7     8 1   
    22     7    50 1   
    23     7    51 1   
    24     8     9 ar  
    25     8    31 ar  
    26     9    28 1   
    27     9    29 ar  
    28    10    29 ar  
    29    10    30 ar  
    30    10    52 1   
    31    11    26 1   
    32    11    27 2   
    33    11    28 1   
    34    12    13 1   
    35    12    20 1   
    36    12    26 1   
    37    12    53 1   
    38    13    14 ar  
    39    13    21 ar  
    40    14    25 ar  
    41    14    54 1   
    42    15    16 ar  
    43    15    18 ar  
    44    15    75 1   
    45    16    17 ar  
    46    16    74 1   
    47    17    20 ar  
    48    17    55 1   
    49    18    19 ar  
    50    18    56 1   
    51    19    20 ar  
    52    19    57 1   
    53    21    22 ar  
    54    21    58 1   
    55    22    23 ar  
    56    22    59 1   
    57    23    24 1   
    58    23    25 ar  
    59    25    60 1   
    60    26    61 1   
    61    26    62 1   
    62    28    63 1   
    63    29    64 1   
    64    30    31 ar  
    65    30    65 1   
    66    31    32 1   
    67    33    34 1   
    68    33    66 1   
    69    33    67 1   
    70    34    36 1   
    71    34    68 1   
    72    35    37 1   
    73    36    69 1   
    74    36    70 1   
    75    37    38 2   
    76    37    39 2   
    77    40    71 1   
    78    41    72 1   
    79    42    73 1   
@<TRIPOS>SUBSTRUCTURE
     1 CKD         1 TEMP              0 ****  ****    0 ROOT
