@<TRIPOS>MOLECULE
CKE
   65    69     1     0     0
SMALL
No Charge or Current Charge


@<TRIPOS>ATOM
      1 C11         -1.7740    -0.9600     2.2200 cc         1 CKE      -0.046300
      2 C12         -0.5770    -0.6110     3.0720 c3         1 CKE       0.031100
      3 C13          0.6910    -0.4060     2.2470 ca         1 CKE      -0.123300
      4 C14          1.1330    -1.4120     1.3680 ca         1 CKE      -0.075500
      5 C15          2.2690    -1.2040     0.5680 ca         1 CKE      -0.159500
      6 C16          2.9830     0.0070     0.6310 ca         1 CKE       0.294000
      7 C20          5.2430    -0.7850    -0.1860 c6         1 CKE       0.159300
      8 C21          6.1100    -0.7300    -1.4900 c6         1 CKE       0.159300
      9 C24          4.5250     1.5780    -0.6350 c6         1 CKE       0.159300
     10 C27         -1.1170     1.0720    -0.6510 c6         1 CKE      -0.089900
     11 C30         -1.5860     3.5580    -1.0180 c6         1 CKE      -0.077400
     12 C31          7.6400     1.1430    -0.9000 c3         1 CKE       0.151100
     13 N01         -5.3400    -2.6190    -0.2520 nb         1 CKE      -0.201000
     14 C02         -4.5360    -2.9390     0.7850 ca         1 CKE       0.159900
     15 C03         -3.5440    -2.0360     1.1880 ca         1 CKE      -0.197800
     16 C04         -3.3810    -0.8340     0.5430 ca         1 CKE       0.140500
     17 N05         -4.1730    -0.5070    -0.5000 nb         1 CKE      -0.203000
     18 C06         -5.1190    -1.4170    -0.8490 ca         1 CKE       0.146300
     19 C07         -2.5470    -2.1060     2.2220 cd         1 CKE      -0.217200
     20 N08         -2.3210    -0.1730     1.1760 na         1 CKE      -0.182400
     21 N10         -5.4660    -1.4070    -3.3520 n8         1 CKE      -0.985200
     22 C17          2.5420     1.0080     1.5190 ca         1 CKE      -0.159500
     23 C18          1.4080     0.8030     2.3240 ca         1 CKE      -0.075500
     24 N19          4.1160     0.2040    -0.1970 nh         1 CKE      -0.781400
     25 N22          6.5910     0.6480    -1.8220 n3         1 CKE      -0.712600
     26 C23          5.4110     1.5640    -1.9260 c6         1 CKE       0.159300
     27 C25         -1.8170     1.1550     0.7310 c6         1 CKE       0.096300
     28 C26         -2.9040     2.2650     0.7520 c6         1 CKE      -0.089900
     29 C28         -2.2920     3.6340     0.3600 c6         1 CKE      -0.071400
     30 C29         -0.5110     2.4420    -1.0430 c6         1 CKE      -0.071400
     31 C09         -6.0300    -1.0480    -2.0240 c3         1 CKE       0.111500
     32 H121        -0.8060     0.2860     3.6590 hc         1 CKE       0.061700
     33 H122        -0.4070    -1.4090     3.8040 hc         1 CKE       0.061700
     34 H14          0.5850    -2.3480     1.2910 ha         1 CKE       0.113000
     35 H15          2.5830    -1.9830    -0.1210 ha         1 CKE       0.115500
     36 H201         4.8610    -1.8100    -0.0750 h1         1 CKE       0.040950
     37 H202         5.8910    -0.5930     0.6820 h1         1 CKE       0.040950
     38 H211         6.9590    -1.4210    -1.3830 h1         1 CKE       0.060700
     39 H212         5.4980    -1.1160    -2.3180 h1         1 CKE       0.060700
     40 H241         3.6330     2.1890    -0.8400 h1         1 CKE       0.040950
     41 H242         5.0800     2.0760     0.1740 h1         1 CKE       0.040950
     42 H271        -0.3230     0.3140    -0.6220 hc         1 CKE       0.060450
     43 H272        -1.8300     0.7500    -1.4220 hc         1 CKE       0.060450
     44 H301        -2.3300     3.3720    -1.8050 hc         1 CKE       0.041200
     45 H302        -1.1220     4.5260    -1.2520 hc         1 CKE       0.041200
     46 H311         8.5030     0.4640    -0.8970 h1         1 CKE       0.031033
     47 H312         7.9940     2.1340    -1.2150 h1         1 CKE       0.031033
     48 H313         7.2680     1.2260     0.1300 h1         1 CKE       0.031033
     49 H02         -4.6890    -3.9000     1.2730 h4         1 CKE       0.023100
     50 H07         -2.3950    -2.9480     2.8950 ha         1 CKE       0.208000
     51 H101        -6.0880    -1.0570    -4.0920 hn         1 CKE       0.398000
     52 H102        -4.5950    -0.8810    -3.4980 hn         1 CKE       0.398000
     53 H17          3.0780     1.9480     1.5970 ha         1 CKE       0.115500
     54 H18          1.0820     1.5930     2.9970 ha         1 CKE       0.113000
     55 H231         4.7760     1.2510    -2.7680 h1         1 CKE       0.060700
     56 H232         5.7360     2.5910    -2.1480 h1         1 CKE       0.060700
     57 H25         -1.0560     1.4710     1.4550 h1         1 CKE       0.060700
     58 H261        -3.7200     2.0280     0.0590 hc         1 CKE       0.060450
     59 H262        -3.3500     2.3310     1.7530 hc         1 CKE       0.060450
     60 H281        -1.5730     3.9510     1.1270 hc         1 CKE       0.040200
     61 H282        -3.0790     4.4000     0.3340 hc         1 CKE       0.040200
     62 H291         0.3040     2.6960    -0.3510 hc         1 CKE       0.040200
     63 H292        -0.0610     2.3780    -2.0440 hc         1 CKE       0.040200
     64 H091        -6.9990    -1.5550    -1.9070 h1         1 CKE       0.049200
     65 H092        -6.2210     0.0340    -2.0040 h1         1 CKE       0.049200
@<TRIPOS>BOND
     1     1     2 1   
     2     1    19 2   
     3     1    20 1   
     4     2     3 1   
     5     2    32 1   
     6     2    33 1   
     7     3     4 ar  
     8     3    23 ar  
     9     4     5 ar  
    10     4    34 1   
    11     5     6 ar  
    12     5    35 1   
    13     6    22 ar  
    14     6    24 1   
    15     7     8 1   
    16     7    24 1   
    17     7    36 1   
    18     7    37 1   
    19     8    25 1   
    20     8    38 1   
    21     8    39 1   
    22     9    24 1   
    23     9    26 1   
    24     9    40 1   
    25     9    41 1   
    26    10    27 1   
    27    10    30 1   
    28    10    42 1   
    29    10    43 1   
    30    11    29 1   
    31    11    30 1   
    32    11    44 1   
    33    11    45 1   
    34    12    25 1   
    35    12    46 1   
    36    12    47 1   
    37    12    48 1   
    38    13    14 ar  
    39    13    18 ar  
    40    14    15 ar  
    41    14    49 1   
    42    15    16 ar  
    43    15    19 1   
    44    16    17 ar  
    45    16    20 1   
    46    17    18 ar  
    47    18    31 1   
    48    19    50 1   
    49    20    27 1   
    50    21    31 1   
    51    21    51 1   
    52    21    52 1   
    53    22    23 ar  
    54    22    53 1   
    55    23    54 1   
    56    25    26 1   
    57    26    55 1   
    58    26    56 1   
    59    27    28 1   
    60    27    57 1   
    61    28    29 1   
    62    28    58 1   
    63    28    59 1   
    64    29    60 1   
    65    29    61 1   
    66    30    62 1   
    67    30    63 1   
    68    31    64 1   
    69    31    65 1   
@<TRIPOS>SUBSTRUCTURE
     1 CKE         1 TEMP              0 ****  ****    0 ROOT
