@<TRIPOS>MOLECULE
CKE
   65    69     1     0     0
SMALL
abcg2


@<TRIPOS>ATOM
      1 C11         -1.7280    -0.9020     2.1200 cc         1 CKE      -0.046300
      2 C12         -0.5560    -0.3890     2.8860 c3         1 CKE       0.031100
      3 C13          0.6870    -0.2260     2.0410 ca         1 CKE      -0.123300
      4 C14          1.1670    -1.2760     1.2610 ca         1 CKE      -0.075500
      5 C15          2.2950    -1.1350     0.4750 ca         1 CKE      -0.159500
      6 C16          3.0060     0.0750     0.4330 ca         1 CKE       0.294000
      7 C20          5.1340    -0.8420    -0.3010 c6         1 CKE       0.159300
      8 C21          6.0990    -0.7610    -1.4750 c6         1 CKE       0.159300
      9 C24          4.7010     1.5280    -0.5340 c6         1 CKE       0.159300
     10 C27         -1.2930     1.0850    -0.7520 c6         1 CKE      -0.089900
     11 C30         -1.9040     3.5060    -1.1020 c6         1 CKE      -0.077400
     12 C31          7.7520     0.8190    -0.6550 c3         1 CKE       0.151100
     13 N01         -5.1630    -2.7280    -0.1640 nb         1 CKE      -0.201000
     14 C02         -4.3550    -3.0370     0.8440 ca         1 CKE       0.159900
     15 C03         -3.3780    -2.1560     1.2770 ca         1 CKE      -0.197800
     16 C04         -3.3270    -0.9310     0.5770 ca         1 CKE       0.140500
     17 N05         -4.1330    -0.6090    -0.4200 nb         1 CKE      -0.203000
     18 C06         -5.0200    -1.5350    -0.7490 ca         1 CKE       0.146300
     19 C07         -2.3470    -2.1110     2.2580 cd         1 CKE      -0.217200
     20 N08         -2.3290    -0.1750     1.1020 na         1 CKE      -0.182400
     21 N10         -5.2100    -0.7180    -3.0360 n8         1 CKE      -0.985200
     22 C17          2.5260     1.1250     1.2220 ca         1 CKE      -0.159500
     23 C18          1.3890     0.9690     2.0050 ca         1 CKE      -0.075500
     24 N19          4.1210     0.2050    -0.3960 nh         1 CKE      -0.781400
     25 N22          6.7200     0.5400    -1.6340 n3         1 CKE      -0.712600
     26 C23          5.6870     1.5550    -1.6990 c6         1 CKE       0.159300
     27 C25         -1.9190     1.1480     0.6390 c6         1 CKE       0.096300
     28 C26         -3.0480     2.1730     0.7110 c6         1 CKE      -0.089900
     29 C28         -2.5330     3.5460     0.2870 c6         1 CKE      -0.071400
     30 C29         -0.7940     2.4630    -1.1710 c6         1 CKE      -0.071400
     31 C09         -5.9550    -1.1850    -1.8750 c3         1 CKE       0.111500
     32 H121        -0.8000     0.5630     3.3660 hc         1 CKE       0.061700
     33 H122        -0.3690    -1.0980     3.6950 hc         1 CKE       0.061700
     34 H14          0.6410    -2.2250     1.2530 ha         1 CKE       0.113000
     35 H15          2.6110    -1.9740    -0.1310 ha         1 CKE       0.115500
     36 H201         4.6620    -1.8230    -0.3110 h1         1 CKE       0.040950
     37 H202         5.6830    -0.7650     0.6500 h1         1 CKE       0.040950
     38 H211         6.8730    -1.5230    -1.3570 h1         1 CKE       0.060700
     39 H212         5.5530    -0.9970    -2.3950 h1         1 CKE       0.060700
     40 H241         3.9090     2.2480    -0.7480 h1         1 CKE       0.040950
     41 H242         5.1910     1.8610     0.3940 h1         1 CKE       0.040950
     42 H271        -0.4670     0.3690    -0.7460 hc         1 CKE       0.060450
     43 H272        -2.0370     0.7210    -1.4680 hc         1 CKE       0.060450
     44 H301        -2.6740     3.2730    -1.8460 hc         1 CKE       0.041200
     45 H302        -1.5110     4.4920    -1.3630 hc         1 CKE       0.041200
     46 H311         8.5300     0.0560    -0.7190 h1         1 CKE       0.031033
     47 H312         8.2140     1.7820    -0.8800 h1         1 CKE       0.031033
     48 H313         7.4150     0.8560     0.3900 h1         1 CKE       0.031033
     49 H02         -4.4900    -4.0110     1.3030 h4         1 CKE       0.023100
     50 H07         -2.0820    -2.8740     2.9730 ha         1 CKE       0.208000
     51 H101        -5.8670    -0.3960    -3.7350 hn         1 CKE       0.398000
     52 H102        -4.6770     0.0990    -2.7660 hn         1 CKE       0.398000
     53 H17          3.0350     2.0780     1.2480 ha         1 CKE       0.115500
     54 H18          1.0520     1.8080     2.6050 ha         1 CKE       0.113000
     55 H231         5.1250     1.4150    -2.6280 h1         1 CKE       0.060700
     56 H232         6.1510     2.5430    -1.7500 h1         1 CKE       0.060700
     57 H25         -1.1430     1.4770     1.3310 h1         1 CKE       0.060700
     58 H261        -3.8690     1.8680     0.0590 hc         1 CKE       0.060450
     59 H262        -3.4420     2.2130     1.7300 hc         1 CKE       0.060450
     60 H281        -1.7860     3.8960     1.0090 hc         1 CKE       0.040200
     61 H282        -3.3520     4.2690     0.3150 hc         1 CKE       0.040200
     62 H291         0.0280     2.7610    -0.5100 hc         1 CKE       0.040200
     63 H292        -0.3760     2.4140    -2.1790 hc         1 CKE       0.040200
     64 H091        -6.5270    -2.0740    -2.1400 h1         1 CKE       0.049200
     65 H092        -6.6780    -0.4480    -1.4940 h1         1 CKE       0.049200
@<TRIPOS>BOND
     1     1     2 1   
     2     1    19 2   
     3     1    20 1   
     4     2     3 1   
     5     2    32 1   
     6     2    33 1   
     7     3     4 ar  
     8     3    23 ar  
     9     4     5 ar  
    10     4    34 1   
    11     5     6 ar  
    12     5    35 1   
    13     6    22 ar  
    14     6    24 1   
    15     7     8 1   
    16     7    24 1   
    17     7    36 1   
    18     7    37 1   
    19     8    25 1   
    20     8    38 1   
    21     8    39 1   
    22     9    24 1   
    23     9    26 1   
    24     9    40 1   
    25     9    41 1   
    26    10    27 1   
    27    10    30 1   
    28    10    42 1   
    29    10    43 1   
    30    11    29 1   
    31    11    30 1   
    32    11    44 1   
    33    11    45 1   
    34    12    25 1   
    35    12    46 1   
    36    12    47 1   
    37    12    48 1   
    38    13    14 ar  
    39    13    18 ar  
    40    14    15 ar  
    41    14    49 1   
    42    15    16 ar  
    43    15    19 1   
    44    16    17 ar  
    45    16    20 1   
    46    17    18 ar  
    47    18    31 1   
    48    19    50 1   
    49    20    27 1   
    50    21    31 1   
    51    21    51 1   
    52    21    52 1   
    53    22    23 ar  
    54    22    53 1   
    55    23    54 1   
    56    25    26 1   
    57    26    55 1   
    58    26    56 1   
    59    27    28 1   
    60    27    57 1   
    61    28    29 1   
    62    28    58 1   
    63    28    59 1   
    64    29    60 1   
    65    29    61 1   
    66    30    62 1   
    67    30    63 1   
    68    31    64 1   
    69    31    65 1   
@<TRIPOS>SUBSTRUCTURE
     1 CKE         1 TEMP              0 ****  ****    0 ROOT
