@<TRIPOS>MOLECULE
CKF
   48    50     1     0     0
SMALL
No Charge or Current Charge


@<TRIPOS>ATOM
      1 C10         37.5850    26.3650    29.1310 ca         1 CKF      -0.327500
      2 C13         40.5150    28.7990    28.3420 c          1 CKF       0.616700
      3 C15         38.8730    30.4820    27.3530 ca         1 CKF      -0.066000
      4 C17         36.7630    31.0360    28.4460 ca         1 CKF       0.022200
      5 C20         33.3230    32.4070    27.7720 c5         1 CKF      -0.081400
      6 C21         33.6070    32.9060    29.2240 c5         1 CKF      -0.048200
      7 C22         34.8790    32.1830    29.6050 c2         1 CKF      -0.200200
      8 C24         38.6310    25.5580    28.6420 ca         1 CKF      -0.017000
      9 C26         37.4280    25.2820    26.5410 ca         1 CKF       0.025000
     10 N           41.2040    28.8230    27.1510 ns         1 CKF      -0.489900
     11 O           33.8580    26.6800    26.9530 o          1 CKF      -0.690533
     12 C08         36.3780    26.0870    27.0250 ca         1 CKF      -0.239500
     13 C09         36.4630    26.6360    28.3200 ca         1 CKF       0.067000
     14 C11         38.2950    29.4150    29.4600 ca         1 CKF       0.290000
     15 C12         39.2130    29.5790    28.3920 ca         1 CKF      -0.188600
     16 C14         42.4730    28.1310    26.9160 c3         1 CKF       0.094300
     17 C16         37.6640    31.1950    27.3810 ca         1 CKF      -0.091000
     18 C18         35.4750    31.7940    28.4690 ce         1 CKF      -0.068400
     19 C19         34.7530    32.1640    27.1880 c5         1 CKF      -0.043200
     20 C23         37.0930    30.1420    29.4800 ca         1 CKF      -0.124000
     21 C25         38.5480    25.0200    27.3490 ca         1 CKF      -0.175000
     22 N02         38.5530    28.5210    30.4860 nu         1 CKF      -0.864100
     23 O03         38.6190    26.3410    31.5980 o          1 CKF      -0.547000
     24 O04         40.9630    28.1860    29.3040 o          1 CKF      -0.643100
     25 O05         36.3850    27.5530    31.2210 o          1 CKF      -0.547000
     26 O06         34.8070    25.2250    25.1560 o          1 CKF      -0.690533
     27 S           37.7020    27.1100    30.7560 sy         1 CKF       1.133600
     28 S01         34.9180    26.4520    25.9600 s6         1 CKF       1.262100
     29 H1          39.5410    30.6580    26.5140 ha         1 CKF       0.109000
     30 H2          32.7400    33.1230    27.1820 hc         1 CKF       0.050200
     31 H3          32.7560    31.4690    27.7950 hc         1 CKF       0.050200
     32 H4          33.7610    33.9910    29.2520 hc         1 CKF       0.039700
     33 H5          32.7820    32.6740    29.9080 hc         1 CKF       0.039700
     34 H6          35.2490    32.0180    30.6180 ha         1 CKF       0.183000
     35 H8          39.5100    25.3560    29.2530 ha         1 CKF       0.117000
     36 H9          37.3830    24.8630    25.5380 ha         1 CKF       0.125000
     37 H10         40.7790    29.3280    26.3840 hn         1 CKF       0.333500
     38 H12         35.6650    27.2780    28.6910 ha         1 CKF       0.161000
     39 H13         42.8030    28.3110    25.8850 h1         1 CKF       0.037033
     40 H14         43.2340    28.5090    27.6110 h1         1 CKF       0.037033
     41 H15         42.3390    27.0530    27.0710 h1         1 CKF       0.037033
     42 H16         37.4380    31.8840    26.5720 ha         1 CKF       0.127000
     43 H18         34.7710    31.3640    26.4380 hc         1 CKF       0.060700
     44 H19         35.1740    33.0710    26.7400 hc         1 CKF       0.060700
     45 H20         36.4040    30.0010    30.3060 ha         1 CKF       0.146000
     46 H21         39.3560    24.4000    26.9680 ha         1 CKF       0.097000
     47 H22         39.5040    28.1610    30.4300 hn         1 CKF       0.516000
     48 O1          35.3840    27.6450    25.2380 o          1 CKF      -0.690533
@<TRIPOS>BOND
     1     1     8 ar  
     2     1    13 ar  
     3     1    27 1   
     4     2    10 1   
     5     2    15 1   
     6     2    24 2   
     7     3    15 ar  
     8     3    17 ar  
     9     3    29 1   
    10     4    17 ar  
    11     4    18 1   
    12     4    20 ar  
    13     5     6 1   
    14     5    19 1   
    15     5    30 1   
    16     5    31 1   
    17     6     7 1   
    18     6    32 1   
    19     6    33 1   
    20     7    18 2   
    21     7    34 1   
    22     8    21 ar  
    23     8    35 1   
    24     9    12 ar  
    25     9    21 ar  
    26     9    36 1   
    27    10    16 1   
    28    10    37 1   
    29    11    28 1   
    30    12    13 ar  
    31    12    28 1   
    32    13    38 1   
    33    14    15 ar  
    34    14    20 ar  
    35    14    22 1   
    36    16    39 1   
    37    16    40 1   
    38    16    41 1   
    39    17    42 1   
    40    18    19 1   
    41    19    43 1   
    42    19    44 1   
    43    20    45 1   
    44    21    46 1   
    45    22    27 1   
    46    22    47 1   
    47    23    27 2   
    48    25    27 2   
    49    26    28 1   
    50    28    48 1   
@<TRIPOS>SUBSTRUCTURE
     1 CKF         1 TEMP              0 ****  ****    0 ROOT
