@<TRIPOS>MOLECULE
CKF
   48    50     1     0     0
SMALL
abcg2


@<TRIPOS>ATOM
      1 C10         37.6810    26.6650    29.2320 ca         1 CKF      -0.327500
      2 C13         40.5540    28.7550    28.3120 c          1 CKF       0.616700
      3 C15         38.8600    30.3220    27.3210 ca         1 CKF      -0.066000
      4 C17         36.7990    30.8630    28.4550 ca         1 CKF       0.022200
      5 C20         33.3090    31.9990    27.5560 c5         1 CKF      -0.081400
      6 C21         33.3390    32.2520    29.0710 c5         1 CKF      -0.048200
      7 C22         34.6580    31.6710    29.4800 c2         1 CKF      -0.200200
      8 C24         38.6780    25.8890    28.6590 ca         1 CKF      -0.017000
      9 C26         37.5090    26.0230    26.5580 ca         1 CKF       0.025000
     10 N           40.9100    28.3180    27.0990 ns         1 CKF      -0.489900
     11 O           34.1920    27.9830    27.0810 o          1 CKF      -0.690533
     12 C08         36.5210    26.8050    27.1470 ca         1 CKF      -0.239500
     13 C09         36.5930    27.1160    28.4940 ca         1 CKF       0.067000
     14 C11         38.4770    29.4850    29.5350 ca         1 CKF       0.290000
     15 C12         39.2860    29.5380    28.3880 ca         1 CKF      -0.188600
     16 C14         42.0850    27.5040    26.8940 c3         1 CKF       0.094300
     17 C16         37.6320    30.9590    27.3400 ca         1 CKF      -0.091000
     18 C18         35.4550    31.4380    28.4320 ce         1 CKF      -0.068400
     19 C19         34.7800    31.8480    27.1440 c5         1 CKF      -0.043200
     20 C23         37.2660    30.1560    29.5640 ca         1 CKF      -0.124000
     21 C25         38.5720    25.5560    27.3150 ca         1 CKF      -0.175000
     22 N02         38.8270    28.6660    30.6350 nu         1 CKF      -0.864100
     23 O03         38.7360    26.3980    31.6620 o          1 CKF      -0.547000
     24 O04         41.2280    28.5180    29.3140 o          1 CKF      -0.643100
     25 O05         36.6040    27.6920    31.3800 o          1 CKF      -0.547000
     26 O06         34.7490    26.3790    25.2910 o          1 CKF      -0.690533
     27 S           37.9030    27.2900    30.8760 sy         1 CKF       1.133600
     28 S01         35.2050    27.4940    26.1320 s6         1 CKF       1.262100
     29 H1          39.4870    30.4320    26.4450 ha         1 CKF       0.109000
     30 H2          32.7930    32.7840    27.0030 hc         1 CKF       0.050200
     31 H3          32.7850    31.0620    27.3570 hc         1 CKF       0.050200
     32 H4          33.3030    33.3210    29.3110 hc         1 CKF       0.039700
     33 H5          32.4960    31.7950    29.5940 hc         1 CKF       0.039700
     34 H6          34.9230    31.5060    30.5170 ha         1 CKF       0.183000
     35 H8          39.5240    25.5460    29.2390 ha         1 CKF       0.117000
     36 H9          37.4510    25.7690    25.5070 ha         1 CKF       0.125000
     37 H10         40.2600    28.3980    26.3350 hn         1 CKF       0.333500
     38 H12         35.8150    27.7070    28.9560 ha         1 CKF       0.161000
     39 H13         42.2120    27.3500    25.8260 h1         1 CKF       0.037033
     40 H14         42.9770    27.9950    27.2790 h1         1 CKF       0.037033
     41 H15         41.9920    26.5290    27.3760 h1         1 CKF       0.037033
     42 H16         37.3250    31.5300    26.4750 ha         1 CKF       0.127000
     43 H18         34.9160    31.1110    26.3500 hc         1 CKF       0.060700
     44 H19         35.2000    32.7890    26.7740 hc         1 CKF       0.060700
     45 H20         36.6520    30.0820    30.4510 ha         1 CKF       0.146000
     46 H21         39.3340    24.9410    26.8550 ha         1 CKF       0.097000
     47 H22         39.8220    28.4330    30.6260 hn         1 CKF       0.516000
     48 O1          35.8690    28.5660    25.3710 o          1 CKF      -0.690533
@<TRIPOS>BOND
     1     1     8 ar  
     2     1    13 ar  
     3     1    27 1   
     4     2    10 1   
     5     2    15 1   
     6     2    24 2   
     7     3    15 ar  
     8     3    17 ar  
     9     3    29 1   
    10     4    17 ar  
    11     4    18 1   
    12     4    20 ar  
    13     5     6 1   
    14     5    19 1   
    15     5    30 1   
    16     5    31 1   
    17     6     7 1   
    18     6    32 1   
    19     6    33 1   
    20     7    18 2   
    21     7    34 1   
    22     8    21 ar  
    23     8    35 1   
    24     9    12 ar  
    25     9    21 ar  
    26     9    36 1   
    27    10    16 1   
    28    10    37 1   
    29    11    28 1   
    30    12    13 ar  
    31    12    28 1   
    32    13    38 1   
    33    14    15 ar  
    34    14    20 ar  
    35    14    22 1   
    36    16    39 1   
    37    16    40 1   
    38    16    41 1   
    39    17    42 1   
    40    18    19 1   
    41    19    43 1   
    42    19    44 1   
    43    20    45 1   
    44    21    46 1   
    45    22    27 1   
    46    22    47 1   
    47    23    27 2   
    48    25    27 2   
    49    26    28 1   
    50    28    48 1   
@<TRIPOS>SUBSTRUCTURE
     1 CKF         1 TEMP              0 ****  ****    0 ROOT
