@<TRIPOS>MOLECULE
CKG
   55    59     1     0     0
SMALL
abcg2


@<TRIPOS>ATOM
      1 O9           5.7030    -0.8600    -0.9540 o          1 CKG      -0.611100
      2 C8           5.0900     0.0480    -0.4070 c          1 CKG       0.540600
      3 N24          5.6230     1.2440    -0.1250 nt         1 CKG      -0.596000
      4 C5           3.6750    -0.1250    -0.0110 cc         1 CKG       0.187500
      5 C4           2.8820    -1.2740    -0.1220 cc         1 CKG      -0.105300
      6 C2           3.0960    -2.6530    -0.6540 c6         1 CKG       0.002900
      7 N6           2.9860     0.8730     0.5370 nd         1 CKG      -0.513800
      8 N7           1.7760     0.4150     0.7650 na         1 CKG       0.191800
      9 C17          0.7700     1.2880     1.3450 c3         1 CKG       0.090600
     10 C25         -0.0930     2.0090     0.3150 c6         1 CKG      -0.077700
     11 C30         -1.1500     2.8310     1.0510 c6         1 CKG      -0.071900
     12 C29         -2.0010     3.6300     0.0750 c6         1 CKG       0.160300
     13 N28         -1.1540     4.4760    -0.7470 n7         1 CKG      -0.860400
     14 C27         -0.2250     3.6890    -1.5380 c6         1 CKG       0.160300
     15 C26          0.7080     2.9040    -0.6260 c6         1 CKG      -0.071900
     16 C3           1.6600    -0.8800     0.3840 cd         1 CKG      -0.249500
     17 C11          0.5130    -1.7650     0.4370 ca         1 CKG       0.213500
     18 N18         -0.7090    -1.2920     0.6380 nb         1 CKG      -0.220000
     19 C12         -1.7060    -2.1730     0.6480 ca         1 CKG       0.335000
     20 N13         -1.5740    -3.4840     0.4690 nb         1 CKG      -0.162000
     21 C14         -0.3440    -3.9370     0.2560 ca         1 CKG       0.120900
     22 C10          0.7750    -3.1250     0.2350 ca         1 CKG      -0.181300
     23 C1           2.1810    -3.6330     0.0860 c6         1 CKG      -0.020100
     24 N15         -2.9720    -1.7190     0.9490 ne         1 CKG      -0.649700
     25 C16         -3.5680    -0.8200     0.2520 cf         1 CKG       0.583900
     26 C23         -4.8500    -0.3240     0.7400 cf         1 CKG      -0.300100
     27 C22         -5.5480     0.6020     0.0780 c2         1 CKG      -0.172700
     28 C21         -5.0920     1.1850    -1.2080 c6         1 CKG      -0.037000
     29 C20         -3.8000     0.6380    -1.6890 c2         1 CKG      -0.172700
     30 C19         -3.0930    -0.2770    -1.0200 cf         1 CKG      -0.300100
     31 H241         6.5790     1.4440    -0.3680 hn         1 CKG       0.322500
     32 H242         5.0860     1.9670     0.3240 hn         1 CKG       0.322500
     33 H21C         2.8770    -2.6680    -1.7260 hc         1 CKG       0.070700
     34 H22C         4.1330    -2.9620    -0.5450 hc         1 CKG       0.070700
     35 H11C         2.1760    -4.5990    -0.4210 hc         1 CKG       0.057200
     36 H12C         2.5910    -3.8100     1.0860 hc         1 CKG       0.057200
     37 H171         0.1390     0.6880     1.9980 h1         1 CKG       0.076700
     38 H172         1.3080     2.0090     1.9630 h1         1 CKG       0.076700
     39 H25         -0.6140     1.2520    -0.2820 hc         1 CKG       0.066700
     40 H301        -1.7940     2.1740     1.6410 hc         1 CKG       0.051700
     41 H302        -0.6610     3.5190     1.7490 hc         1 CKG       0.051700
     42 H261         1.3200     3.6030    -0.0450 hc         1 CKG       0.051700
     43 H262         1.3930     2.3130    -1.2380 hc         1 CKG       0.051700
     44 H291        -2.5960     2.9230    -0.5270 h1         1 CKG       0.028450
     45 H292        -2.7080     4.2560     0.6220 h1         1 CKG       0.028450
     46 H28         -1.7330     5.0310    -1.3630 hn         1 CKG       0.408000
     47 H271        -0.7400     2.9780    -2.2070 h1         1 CKG       0.028450
     48 H272         0.3550     4.3590    -2.1750 h1         1 CKG       0.028450
     49 H14         -0.2430    -5.0070     0.1040 h4         1 CKG       0.028100
     50 H23         -5.2090    -0.7340     1.6760 ha         1 CKG       0.200000
     51 H19         -2.1580    -0.6350    -1.4270 ha         1 CKG       0.200000
     52 H22         -6.4910     0.9560     0.4770 ha         1 CKG       0.182500
     53 H211        -5.8620     1.0400    -1.9760 hc         1 CKG       0.070700
     54 H212        -5.0200     2.2760    -1.1170 hc         1 CKG       0.070700
     55 H20         -3.4290     1.0120    -2.6360 ha         1 CKG       0.182500
@<TRIPOS>BOND
     1     1     2 2   
     2     2     3 1   
     3     2     4 1   
     4     3    31 1   
     5     3    32 1   
     6     4     5 1   
     7     4     7 2   
     8     5     6 1   
     9     5    16 2   
    10     6    23 1   
    11     6    33 1   
    12     6    34 1   
    13     7     8 1   
    14     8     9 1   
    15     8    16 1   
    16     9    10 1   
    17     9    37 1   
    18     9    38 1   
    19    10    11 1   
    20    10    15 1   
    21    10    39 1   
    22    11    12 1   
    23    11    40 1   
    24    11    41 1   
    25    12    13 1   
    26    12    44 1   
    27    12    45 1   
    28    13    14 1   
    29    13    46 1   
    30    14    15 1   
    31    14    47 1   
    32    14    48 1   
    33    15    42 1   
    34    15    43 1   
    35    16    17 1   
    36    17    18 ar  
    37    17    22 ar  
    38    18    19 ar  
    39    19    20 ar  
    40    19    24 1   
    41    20    21 ar  
    42    21    22 ar  
    43    21    49 1   
    44    22    23 1   
    45    23    35 1   
    46    23    36 1   
    47    24    25 2   
    48    25    26 1   
    49    25    30 1   
    50    26    27 2   
    51    26    50 1   
    52    27    28 1   
    53    27    52 1   
    54    28    29 1   
    55    28    53 1   
    56    28    54 1   
    57    29    30 2   
    58    29    55 1   
    59    30    51 1   
@<TRIPOS>SUBSTRUCTURE
     1 CKG         1 TEMP              0 ****  ****    0 ROOT
