@<TRIPOS>MOLECULE
CKG
   55    59     1     0     0
SMALL
No Charge or Current Charge


@<TRIPOS>ATOM
      1 O9           5.8530    -0.9100    -0.6860 o          1 CKG      -0.611100
      2 C8           5.2170    -0.0090    -0.1590 c          1 CKG       0.540600
      3 N24          5.8490     1.1630     0.1010 nt         1 CKG      -0.596000
      4 C5           3.7620    -0.0600     0.2400 cc         1 CKG       0.187500
      5 C4           2.9290    -1.1900     0.0540 cc         1 CKG      -0.105300
      6 C2           3.2670    -2.5180    -0.5910 c6         1 CKG       0.002900
      7 N6           3.1020     0.9560     0.7900 nd         1 CKG      -0.513800
      8 N7           1.8050     0.4710     0.9310 na         1 CKG       0.191800
      9 C17          0.7460     1.3410     1.4780 c3         1 CKG       0.090600
     10 C25         -0.1490     2.0480     0.4130 c6         1 CKG      -0.077700
     11 C30         -1.3350     2.7970     1.0780 c6         1 CKG      -0.071900
     12 C29         -2.2000     3.5240     0.0200 c6         1 CKG       0.160300
     13 N28         -1.3830     4.4520    -0.7950 n7         1 CKG      -0.860400
     14 C27         -0.2670     3.7660    -1.4880 c6         1 CKG       0.160300
     15 C26          0.6560     3.0350    -0.4820 c6         1 CKG      -0.071900
     16 C3           1.6930    -0.8570     0.4970 cd         1 CKG      -0.249500
     17 C11          0.5490    -1.7690     0.4270 ca         1 CKG       0.213500
     18 N18         -0.6920    -1.3340     0.7190 nb         1 CKG      -0.220000
     19 C12         -1.7050    -2.2190     0.6020 ca         1 CKG       0.335000
     20 N13         -1.5690    -3.5060     0.2150 nb         1 CKG      -0.162000
     21 C14         -0.3270    -3.9420    -0.0700 ca         1 CKG       0.120900
     22 C10          0.7880    -3.0940     0.0190 ca         1 CKG      -0.181300
     23 C1           2.2180    -3.6130    -0.2240 c6         1 CKG      -0.020100
     24 N15         -2.9960    -1.7750     0.9120 ne         1 CKG      -0.649700
     25 C16         -3.5820    -0.8530     0.2120 cf         1 CKG       0.583900
     26 C23         -4.1960     0.2910     0.8610 cf         1 CKG      -0.300100
     27 C22         -4.8990     1.2330     0.1830 c2         1 CKG      -0.172700
     28 C21         -5.1030     1.1650    -1.3280 c6         1 CKG      -0.037000
     29 C20         -4.4640    -0.0700    -1.9560 c2         1 CKG      -0.172700
     30 C19         -3.7760    -0.9810    -1.2240 cf         1 CKG      -0.300100
     31 H241         6.8220     1.2720    -0.1400 hn         1 CKG       0.322500
     32 H242         5.3320     1.9160     0.5340 hn         1 CKG       0.322500
     33 H21C         3.2940    -2.3980    -1.6820 hc         1 CKG       0.070700
     34 H22C         4.2630    -2.8750    -0.2960 hc         1 CKG       0.070700
     35 H11C         2.2130    -4.3880    -1.0030 hc         1 CKG       0.057200
     36 H12C         2.5510    -4.1170     0.6930 hc         1 CKG       0.057200
     37 H171         0.1130     0.7360     2.1370 h1         1 CKG       0.076700
     38 H172         1.2180     2.1070     2.1050 h1         1 CKG       0.076700
     39 H25         -0.5610     1.2580    -0.2310 hc         1 CKG       0.066700
     40 H301        -1.9610     2.0910     1.6400 hc         1 CKG       0.051700
     41 H302        -0.9580     3.5290     1.8060 hc         1 CKG       0.051700
     42 H261         1.1710     3.7750     0.1460 hc         1 CKG       0.051700
     43 H262         1.4360     2.4980    -1.0370 hc         1 CKG       0.051700
     44 H291        -2.6680     2.7800    -0.6410 h1         1 CKG       0.028450
     45 H292        -3.0050     4.0820     0.5190 h1         1 CKG       0.028450
     46 H28         -1.9870     4.8930    -1.5000 hn         1 CKG       0.408000
     47 H271        -0.6760     3.0380    -2.2040 h1         1 CKG       0.028450
     48 H272         0.3190     4.5020    -2.0580 h1         1 CKG       0.028450
     49 H14         -0.2280    -4.9870    -0.3600 h4         1 CKG       0.028100
     50 H23         -4.0720     0.3630     1.9400 ha         1 CKG       0.200000
     51 H19         -3.3430    -1.8570    -1.7030 ha         1 CKG       0.200000
     52 H22         -5.3490     2.0780     0.7110 ha         1 CKG       0.182500
     53 H211        -6.1800     1.1700    -1.5500 hc         1 CKG       0.070700
     54 H212        -4.6890     2.0690    -1.7960 hc         1 CKG       0.070700
     55 H20         -4.5900    -0.2030    -3.0340 ha         1 CKG       0.182500
@<TRIPOS>BOND
     1     1     2 2   
     2     2     3 1   
     3     2     4 1   
     4     3    31 1   
     5     3    32 1   
     6     4     5 1   
     7     4     7 2   
     8     5     6 1   
     9     5    16 2   
    10     6    23 1   
    11     6    33 1   
    12     6    34 1   
    13     7     8 1   
    14     8     9 1   
    15     8    16 1   
    16     9    10 1   
    17     9    37 1   
    18     9    38 1   
    19    10    11 1   
    20    10    15 1   
    21    10    39 1   
    22    11    12 1   
    23    11    40 1   
    24    11    41 1   
    25    12    13 1   
    26    12    44 1   
    27    12    45 1   
    28    13    14 1   
    29    13    46 1   
    30    14    15 1   
    31    14    47 1   
    32    14    48 1   
    33    15    42 1   
    34    15    43 1   
    35    16    17 1   
    36    17    18 ar  
    37    17    22 ar  
    38    18    19 ar  
    39    19    20 ar  
    40    19    24 1   
    41    20    21 ar  
    42    21    22 ar  
    43    21    49 1   
    44    22    23 1   
    45    23    35 1   
    46    23    36 1   
    47    24    25 2   
    48    25    26 1   
    49    25    30 1   
    50    26    27 2   
    51    26    50 1   
    52    27    28 1   
    53    27    52 1   
    54    28    29 1   
    55    28    53 1   
    56    28    54 1   
    57    29    30 2   
    58    29    55 1   
    59    30    51 1   
@<TRIPOS>SUBSTRUCTURE
     1 CKG         1 TEMP              0 ****  ****    0 ROOT
