@<TRIPOS>MOLECULE
CKH
   39    41     1     0     0
SMALL
abcg2


@<TRIPOS>ATOM
      1 CAQ         -2.8030     3.3390    -0.4740 c3         1 CKH      -0.040900
      2 CAP         -3.1910     1.9360    -0.1760 cc         1 CKH      -0.045300
      3 NAO         -4.4590     1.4870    -0.4460 na         1 CKH      -0.223700
      4 CAN         -4.5690     0.1700    -0.1070 ca         1 CKH      -0.042200
      5 CAM         -5.6530    -0.7010    -0.1920 ca         1 CKH      -0.129000
      6 CAL         -5.4610    -2.0020     0.2390 ca         1 CKH      -0.091000
      7 CAA         -4.2220    -2.4260     0.7430 ca         1 CKH      -0.139000
      8 CAB         -3.1500    -1.5570     0.8250 ca         1 CKH      -0.062000
      9 CAC         -3.3150    -0.2350     0.3980 ca         1 CKH      -0.091800
     10 CAD         -2.4510     0.9070     0.3480 cd         1 CKH      -0.144400
     11 CAE         -1.0160     0.9300     0.7550 c3         1 CKH      -0.014200
     12 CAF         -0.1110     0.3630    -0.3350 c3         1 CKH       0.102000
     13 NAG          1.2630     0.3190     0.1230 ns         1 CKH      -0.507900
     14 CAH          2.2390    -0.2820    -0.5690 c          1 CKH       0.616700
     15 OAR          2.0610    -0.8320    -1.6450 o          1 CKH      -0.580100
     16 CAI          3.5800    -0.2630     0.0960 ca         1 CKH      -0.195600
     17 CAJ          3.7300    -0.6360     1.4300 ca         1 CKH      -0.065000
     18 CAK          4.9830    -0.6790     2.0230 ca         1 CKH      -0.136000
     19 CAU          6.1070    -0.3370     1.2840 ca         1 CKH      -0.067000
     20 CAT          5.9820     0.0460    -0.0440 ca         1 CKH      -0.163000
     21 CAS          4.7250     0.0700    -0.6150 ca         1 CKH       0.220000
     22 FAV          4.6120     0.4590    -1.8910 f          1 CKH      -0.160000
     23 H1          -3.5290     4.0480    -0.0730 hc         1 CKH       0.049700
     24 H2          -1.8330     3.5720    -0.0400 hc         1 CKH       0.049700
     25 H3          -2.7360     3.5140    -1.5500 hc         1 CKH       0.049700
     26 H4          -5.2010     2.0570    -0.8180 hn         1 CKH       0.348000
     27 H5          -6.6090    -0.3730    -0.5780 ha         1 CKH       0.113000
     28 H6          -6.2820    -2.7050     0.1860 ha         1 CKH       0.110000
     29 H7          -4.1070    -3.4520     1.0710 ha         1 CKH       0.111000
     30 H8          -2.1990    -1.8970     1.2160 ha         1 CKH       0.113000
     31 H9          -0.7000     1.9500     0.9910 hc         1 CKH       0.044200
     32 H10         -0.8810     0.3460     1.6710 hc         1 CKH       0.044200
     33 H11         -0.4350    -0.6450    -0.6030 h1         1 CKH       0.057700
     34 H12         -0.1930     0.9770    -1.2360 h1         1 CKH       0.057700
     35 H13          1.5070     0.8520     0.9440 hn         1 CKH       0.313500
     36 H14          2.8570    -0.9160     2.0060 ha         1 CKH       0.120000
     37 H15          5.0810    -0.9800     3.0570 ha         1 CKH       0.121000
     38 H16          7.0880    -0.3670     1.7380 ha         1 CKH       0.119000
     39 H17          6.8480     0.3250    -0.6300 ha         1 CKH       0.135000
@<TRIPOS>BOND
     1     1     2 1   
     2     1    23 1   
     3     1    24 1   
     4     1    25 1   
     5     2     3 1   
     6     2    10 2   
     7     3     4 1   
     8     3    26 1   
     9     4     5 ar  
    10     4     9 ar  
    11     5     6 ar  
    12     5    27 1   
    13     6     7 ar  
    14     6    28 1   
    15     7     8 ar  
    16     7    29 1   
    17     8     9 ar  
    18     8    30 1   
    19     9    10 1   
    20    10    11 1   
    21    11    12 1   
    22    11    31 1   
    23    11    32 1   
    24    12    13 1   
    25    12    33 1   
    26    12    34 1   
    27    13    14 1   
    28    13    35 1   
    29    14    15 2   
    30    14    16 1   
    31    16    17 ar  
    32    16    21 ar  
    33    17    18 ar  
    34    17    36 1   
    35    18    19 ar  
    36    18    37 1   
    37    19    20 ar  
    38    19    38 1   
    39    20    21 ar  
    40    20    39 1   
    41    21    22 1   
@<TRIPOS>SUBSTRUCTURE
     1 CKH         1 TEMP              0 ****  ****    0 ROOT
