@<TRIPOS>MOLECULE
CKH
   39    41     1     0     0
SMALL
No Charge or Current Charge


@<TRIPOS>ATOM
      1 CAQ         -2.7430     3.3960    -0.1370 c3         1 CKH      -0.040900
      2 CAP         -3.2180     1.9740    -0.0080 cc         1 CKH      -0.045300
      3 NAO         -4.5190     1.5310    -0.3190 na         1 CKH      -0.223700
      4 CAN         -4.6220     0.1700    -0.0970 ca         1 CKH      -0.042200
      5 CAM         -5.7250    -0.6740    -0.2770 ca         1 CKH      -0.129000
      6 CAL         -5.5620    -2.0440     0.0260 ca         1 CKH      -0.091000
      7 CAA         -4.3170    -2.5320     0.4950 ca         1 CKH      -0.139000
      8 CAB         -3.2240    -1.6550     0.6660 ca         1 CKH      -0.062000
      9 CAC         -3.4230    -0.3030     0.3550 ca         1 CKH      -0.091800
     10 CAD         -2.5350     0.8370     0.4130 cd         1 CKH      -0.144400
     11 CAE         -1.0930     0.7850     0.8550 c3         1 CKH      -0.014200
     12 CAF         -0.1640     0.2810    -0.2650 c3         1 CKH       0.102000
     13 NAG          1.2360     0.2240     0.1640 ns         1 CKH      -0.507900
     14 CAH          2.2770    -0.1970    -0.6340 c          1 CKH       0.616700
     15 OAR          2.0660    -0.5590    -1.7820 o          1 CKH      -0.580100
     16 CAI          3.6530    -0.1990     0.0050 ca         1 CKH      -0.195600
     17 CAJ          3.8150     0.0270     1.3980 ca         1 CKH      -0.065000
     18 CAK          5.0910     0.0220     1.9860 ca         1 CKH      -0.136000
     19 CAU          6.2310    -0.2090     1.2040 ca         1 CKH      -0.067000
     20 CAT          6.0900    -0.4350    -0.1720 ca         1 CKH      -0.163000
     21 CAS          4.8180    -0.4330    -0.7680 ca         1 CKH       0.220000
     22 FAV          4.7520    -0.6450    -2.1020 f          1 CKH      -0.160000
     23 H1          -3.4950     4.0250    -0.6280 hc         1 CKH       0.049700
     24 H2          -2.5330     3.8260     0.8490 hc         1 CKH       0.049700
     25 H3          -1.8230     3.4450    -0.7320 hc         1 CKH       0.049700
     26 H4          -5.2710     2.1210    -0.6580 hn         1 CKH       0.348000
     27 H5          -6.6760    -0.2890    -0.6380 ha         1 CKH       0.113000
     28 H6          -6.3980    -2.7290    -0.1020 ha         1 CKH       0.110000
     29 H7          -4.2030    -3.5890     0.7250 ha         1 CKH       0.111000
     30 H8          -2.2640    -2.0180     1.0240 ha         1 CKH       0.113000
     31 H9          -0.7590     1.7780     1.1790 hc         1 CKH       0.044200
     32 H10         -0.9960     0.1260     1.7260 hc         1 CKH       0.044200
     33 H11         -0.4810    -0.7220    -0.5780 h1         1 CKH       0.057700
     34 H12         -0.2430     0.9520    -1.1310 h1         1 CKH       0.057700
     35 H13          1.4670     0.5260     1.1010 hn         1 CKH       0.313500
     36 H14          2.9610     0.1990     2.0480 ha         1 CKH       0.120000
     37 H15          5.1960     0.1950     3.0550 ha         1 CKH       0.121000
     38 H16          7.2180    -0.2120     1.6620 ha         1 CKH       0.119000
     39 H17          6.9700    -0.6130    -0.7850 ha         1 CKH       0.135000
@<TRIPOS>BOND
     1     1     2 1   
     2     1    23 1   
     3     1    24 1   
     4     1    25 1   
     5     2     3 1   
     6     2    10 2   
     7     3     4 1   
     8     3    26 1   
     9     4     5 ar  
    10     4     9 ar  
    11     5     6 ar  
    12     5    27 1   
    13     6     7 ar  
    14     6    28 1   
    15     7     8 ar  
    16     7    29 1   
    17     8     9 ar  
    18     8    30 1   
    19     9    10 1   
    20    10    11 1   
    21    11    12 1   
    22    11    31 1   
    23    11    32 1   
    24    12    13 1   
    25    12    33 1   
    26    12    34 1   
    27    13    14 1   
    28    13    35 1   
    29    14    15 2   
    30    14    16 1   
    31    16    17 ar  
    32    16    21 ar  
    33    17    18 ar  
    34    17    36 1   
    35    18    19 ar  
    36    18    37 1   
    37    19    20 ar  
    38    19    38 1   
    39    20    21 ar  
    40    20    39 1   
    41    21    22 1   
@<TRIPOS>SUBSTRUCTURE
     1 CKH         1 TEMP              0 ****  ****    0 ROOT
