@<TRIPOS>MOLECULE
CKI
   30    31     1     0     0
SMALL
abcg2


@<TRIPOS>ATOM
      1 C1           1.9540    -0.6700    -0.3080 ca         1 CKI       0.336900
      2 N2           2.9940    -0.3970    -1.0480 nb         1 CKI      -0.640000
      3 C3           2.7950     0.1380    -2.2670 ca         1 CKI       0.323900
      4 C4           1.5550     0.4060    -2.7720 ca         1 CKI      -0.130000
      5 C5          -0.9110     0.3720    -2.4330 ca         1 CKI       0.170000
      6 CL5         -1.1750     1.0410    -3.9980 cl         1 CKI      -0.175000
      7 C6          -1.9840     0.0910    -1.6420 ca         1 CKI      -0.118000
      8 C7          -1.7870    -0.4460    -0.3580 ca         1 CKI       0.012000
      9 C8          -0.5280    -0.7060     0.1060 ca         1 CKI      -0.277500
     10 C9           0.6120    -0.4330    -0.7020 ca         1 CKI      -0.017000
     11 C10          0.4170     0.1250    -1.9920 ca         1 CKI      -0.028000
     12 S           -0.3890    -1.3490     1.7660 sy         1 CKI       1.159600
     13 O1S          0.5120    -2.4880     1.7580 o          1 CKI      -0.527500
     14 O2S         -1.7420    -1.5100     2.2670 o          1 CKI      -0.527500
     15 N1           0.3270    -0.1800     2.6590 n7         1 CKI      -0.885300
     16 C11         -0.2970     1.1350     2.7620 c3         1 CKI       0.202800
     17 C2           0.3390     1.9070     3.9090 c3         1 CKI       0.146800
     18 N3          -0.2340     3.2400     3.9640 n8         1 CKI      -0.999200
     19 H1           2.1750    -1.1220     0.6490 h4         1 CKI       0.029100
     20 H3           3.6820     0.3500    -2.8490 h4         1 CKI       0.027100
     21 H4           1.4600     0.8310    -3.7610 ha         1 CKI       0.137000
     22 H6          -2.9900     0.2810    -1.9870 ha         1 CKI       0.140000
     23 H7          -2.6570    -0.6470     0.2490 ha         1 CKI       0.153000
     24 HN1          1.3370    -0.1650     2.5610 hn         1 CKI       0.486000
     25 H1'1        -1.3600     1.0080     2.9620 h1         1 CKI       0.060200
     26 H1'2        -0.1960     1.7030     1.8300 h1         1 CKI       0.060200
     27 H2'1         1.4310     1.8950     3.7920 h1         1 CKI       0.039700
     28 H2'2         0.1170     1.3890     4.8450 h1         1 CKI       0.039700
     29 HN21         0.0650     3.7000     4.8140 hn         1 CKI       0.398000
     30 HN22         0.1350     3.8000     3.2060 hn         1 CKI       0.398000
@<TRIPOS>BOND
     1     1     2 ar  
     2     1    10 ar  
     3     1    19 1   
     4     2     3 ar  
     5     3     4 ar  
     6     3    20 1   
     7     4    11 ar  
     8     4    21 1   
     9     5     6 1   
    10     5     7 ar  
    11     5    11 ar  
    12     7     8 ar  
    13     7    22 1   
    14     8     9 ar  
    15     8    23 1   
    16     9    10 ar  
    17     9    12 1   
    18    10    11 ar  
    19    12    13 2   
    20    12    14 2   
    21    12    15 1   
    22    15    16 1   
    23    15    24 1   
    24    16    17 1   
    25    16    25 1   
    26    16    26 1   
    27    17    18 1   
    28    17    27 1   
    29    17    28 1   
    30    18    29 1   
    31    18    30 1   
@<TRIPOS>SUBSTRUCTURE
     1 CKI         1 TEMP              0 ****  ****    0 ROOT
