@<TRIPOS>MOLECULE
CKI
   30    31     1     0     0
SMALL
No Charge or Current Charge


@<TRIPOS>ATOM
      1 C1           1.8890    -0.4880    -0.1300 ca         1 CKI       0.336900
      2 N2           2.9570    -0.0790    -0.8530 nb         1 CKI      -0.640000
      3 C3           2.7270     0.4940    -2.0510 ca         1 CKI       0.323900
      4 C4           1.4380     0.6930    -2.5620 ca         1 CKI      -0.130000
      5 C5          -1.0000     0.4750    -2.2860 ca         1 CKI       0.170000
      6 Cl5         -1.3300     1.2510    -3.8380 cl         1 CKI      -0.175000
      7 C6          -2.0910     0.0600    -1.5150 ca         1 CKI      -0.118000
      8 C7          -1.8900    -0.5650    -0.2780 ca         1 CKI       0.012000
      9 C8          -0.5850    -0.7870     0.2170 ca         1 CKI      -0.277500
     10 C9           0.5380    -0.3500    -0.5560 ca         1 CKI      -0.017000
     11 C10          0.3160     0.2750    -1.8120 ca         1 CKI      -0.028000
     12 S           -0.4560    -1.6590     1.8090 sy         1 CKI       1.159600
     13 O1S          0.7170    -2.5320     1.7870 o          1 CKI      -0.527500
     14 O2S         -1.7680    -2.1470     2.2400 o          1 CKI      -0.527500
     15 N1          -0.0470    -0.4520     2.8900 n7         1 CKI      -0.885300
     16 C11         -0.0770     0.9680     2.4740 c3         1 CKI       0.202800
     17 C2           0.2320     1.9000     3.6800 c3         1 CKI       0.146800
     18 N3           0.2210     3.3450     3.3310 n8         1 CKI      -0.999200
     19 H1           2.1520    -0.9070     0.8350 h4         1 CKI       0.029100
     20 H3           3.6030     0.8130    -2.6150 h4         1 CKI       0.027100
     21 H4           1.3350     1.1720    -3.5310 ha         1 CKI       0.137000
     22 H6          -3.1020     0.2190    -1.8810 ha         1 CKI       0.140000
     23 H7          -2.7640    -0.8820     0.2890 ha         1 CKI       0.153000
     24 HN1          0.8990    -0.7310     3.1500 hn         1 CKI       0.486000
     25 H1'1        -1.0700     1.2310     2.0840 h1         1 CKI       0.060200
     26 H1'2         0.6580     1.1690     1.6840 h1         1 CKI       0.060200
     27 H2'1         1.2190     1.6470     4.0920 h1         1 CKI       0.039700
     28 H2'2        -0.5180     1.7260     4.4640 h1         1 CKI       0.039700
     29 HN21         0.4520     3.8930     4.1700 hn         1 CKI       0.398000
     30 HN22         1.0030     3.5460     2.6950 hn         1 CKI       0.398000
@<TRIPOS>BOND
     1     1     2 ar  
     2     1    10 ar  
     3     1    19 1   
     4     2     3 ar  
     5     3     4 ar  
     6     3    20 1   
     7     4    11 ar  
     8     4    21 1   
     9     5     6 1   
    10     5     7 ar  
    11     5    11 ar  
    12     7     8 ar  
    13     7    22 1   
    14     8     9 ar  
    15     8    23 1   
    16     9    10 ar  
    17     9    12 1   
    18    10    11 ar  
    19    12    13 2   
    20    12    14 2   
    21    12    15 1   
    22    15    16 1   
    23    15    24 1   
    24    16    17 1   
    25    16    25 1   
    26    16    26 1   
    27    17    18 1   
    28    17    27 1   
    29    17    28 1   
    30    18    29 1   
    31    18    30 1   
@<TRIPOS>SUBSTRUCTURE
     1 CKI         1 TEMP              0 ****  ****    0 ROOT
