@<TRIPOS>MOLECULE
CKI
   30    31     1     0     0
SMALL
bcc


@<TRIPOS>ATOM
      1 N1           1.9540    -0.6700    -0.3080 ca         1 CKI       0.106800
      2 N2           2.9940    -0.3970    -1.0480 nb         1 CKI      -0.453600
      3 N3           2.7950     0.1380    -2.2670 ca         1 CKI       0.093800
      4 N4           1.5550     0.4060    -2.7720 ca         1 CKI      -0.148000
      5 N5          -0.9110     0.3720    -2.4330 ca         1 CKI       0.000000
      6 NL5         -1.1750     1.0410    -3.9980 cl         1 CKI      -0.005000
      7 N6          -1.9840     0.0910    -1.6420 ca         1 CKI      -0.136000
      8 N7          -1.7870    -0.4460    -0.3580 ca         1 CKI      -0.006000
      9 N8          -0.5280    -0.7060     0.1060 ca         1 CKI      -0.603500
     10 N9           0.6120    -0.4330    -0.7020 cz         1 CKI      -0.017000
     11 N10          0.4170     0.1250    -1.9920 cz         1 CKI      -0.028000
     12 N           -0.3890    -1.3490     1.7660 s6         1 CKI       2.521500
     13 N1S          0.5120    -2.4880     1.7580 o          1 CKI      -0.877500
     14 N2S         -1.7420    -1.5100     2.2670 o          1 CKI      -0.877500
     15 N1           0.3270    -0.1800     2.6590 n7         1 CKI      -0.803000
     16 N11         -0.2970     1.1350     2.7620 c3         1 CKI      -0.034000
     17 N2           0.3390     1.9070     3.9090 c3         1 CKI      -0.090000
     18 N3          -0.2340     3.2400     3.9640 n8         1 CKI      -0.321000
     19 N1           2.1750    -1.1220     0.6490 hn         1 CKI       0.166000
     20 N3           3.6820     0.3500    -2.8490 hn         1 CKI       0.164000
     21 N4           1.4600     0.8310    -3.7610 hn         1 CKI       0.155000
     22 N6          -2.9900     0.2810    -1.9870 hn         1 CKI       0.158000
     23 N7          -2.6570    -0.6470     0.2490 hn         1 CKI       0.171000
     24 NN1          1.3370    -0.1650     2.5610 hn         1 CKI       0.226000
     25 N1'1        -1.3600     1.0080     2.9620 hn         1 CKI       0.099500
     26 N1'2        -0.1960     1.7030     1.8300 hn         1 CKI       0.099500
     27 N2'1         1.4310     1.8950     3.7920 hn         1 CKI       0.079000
     28 N2'2         0.1170     1.3890     4.8450 hn         1 CKI       0.079000
     29 NN21         0.0650     3.7000     4.8140 hn         1 CKI       0.138000
     30 NN22         0.1350     3.8000     3.2060 hn         1 CKI       0.138000
@<TRIPOS>BOND
     1     1     2 ar  
     2     1    10 2   
     3     1    19 1   
     4     2     3 ar  
     5     3     4 ar  
     6     3    20 1   
     7     4    11 2   
     8     4    21 1   
     9     5     6 1   
    10     5     7 ar  
    11     5    11 1   
    12     7     8 ar  
    13     7    22 1   
    14     8     9 ar  
    15     8    23 1   
    16     9    10 1   
    17     9    12 1   
    18    10    11 1   
    19    12    13 2   
    20    12    14 2   
    21    12    15 1   
    22    15    16 1   
    23    15    24 1   
    24    16    17 1   
    25    16    25 1   
    26    16    26 1   
    27    17    18 1   
    28    17    27 1   
    29    17    28 1   
    30    18    29 1   
    31    18    30 1   
@<TRIPOS>SUBSTRUCTURE
     1 CKI         1 TEMP              0 ****  ****    0 ROOT
