@<TRIPOS>MOLECULE
CKJ
   58    61     1     0     0
SMALL
No Charge or Current Charge


@<TRIPOS>ATOM
      1 C            3.9090    -2.2220    -0.0920 ca         1 CKJ      -0.061500
      2 F            5.2220    -5.6300    -0.3730 f          1 CKJ      -0.178000
      3 N            2.0950    -0.1760     1.0910 nc         1 CKJ      -0.520100
      4 C01          0.6970     3.0580     0.6190 c6         1 CKJ      -0.083700
      5 C02         -4.7520    -1.1510    -0.4420 c3         1 CKJ       0.239800
      6 N02          0.9260     0.5780     1.2260 na         1 CKJ      -0.030100
      7 C03         -6.0780    -0.3690    -0.3500 c3         1 CKJ      -0.098400
      8 C04         -7.2840    -1.1640    -0.9000 c3         1 CKJ      -0.072400
      9 C05         -8.6110    -0.3860    -0.8100 c3         1 CKJ      -0.090100
     10 C06          2.5780    -2.4740     0.3120 ca         1 CKJ      -0.113900
     11 C07          2.1730    -3.8100     0.5280 ca         1 CKJ      -0.061500
     12 C08          3.0620    -4.8730     0.2890 ca         1 CKJ      -0.157500
     13 C09          4.3680    -4.6080    -0.1470 ca         1 CKJ       0.178000
     14 C10          4.7960    -3.2860    -0.3320 ca         1 CKJ      -0.157500
     15 C23         -0.6480    -2.2500    -0.1780 ca         1 CKJ       0.227900
     16 N24         -1.9540    -1.9280    -0.2770 nb         1 CKJ      -0.264000
     17 C25         -2.3090    -0.7050     0.1820 ca         1 CKJ       0.414900
     18 N26         -1.4990     0.2320     0.7120 nb         1 CKJ      -0.280000
     19 C27          0.2400    -1.3340     0.3960 ca         1 CKJ      -0.383900
     20 C28         -0.2010    -0.1110     0.8030 ca         1 CKJ       0.185500
     21 C31          1.6680    -1.3490     0.6060 cd         1 CKJ       0.450500
     22 C32          0.9070     1.9700     1.7160 c3         1 CKJ       0.102600
     23 C33          0.5770     4.4710     1.2550 c6         1 CKJ      -0.069400
     24 C35          1.8250     3.0410    -0.4530 c6         1 CKJ      -0.069400
     25 C36          1.6060     4.1360    -1.5270 c6         1 CKJ      -0.073400
     26 C37          1.4870     5.5400    -0.8810 c6         1 CKJ       0.161500
     27 C38          0.3570     5.5640     0.1790 c6         1 CKJ      -0.073400
     28 N39          1.2560     6.5680    -1.9100 n8         1 CKJ      -0.997200
     29 H            4.2530    -1.1990    -0.2340 ha         1 CKJ       0.125000
     30 H01         -0.2570     2.8210     0.1260 hc         1 CKJ       0.068700
     31 HN01        -3.8630     0.5860     0.4470 hn         1 CKJ       0.504000
     32 H02         -4.5560    -1.4080    -1.4920 h1         1 CKJ       0.053200
     33 H02A        -4.8450    -2.0890     0.1240 h1         1 CKJ       0.053200
     34 H03         -6.2700    -0.1070     0.6980 hc         1 CKJ       0.045700
     35 H03A        -5.9830     0.5700    -0.9090 hc         1 CKJ       0.045700
     36 H04         -7.0970    -1.4290    -1.9480 hc         1 CKJ       0.041700
     37 H04A        -7.3840    -2.1050    -0.3450 hc         1 CKJ       0.041700
     38 H05         -9.4350    -0.9880    -1.2120 hc         1 CKJ       0.034367
     39 H05A        -8.8450    -0.1360     0.2320 hc         1 CKJ       0.034367
     40 H05B        -8.5550     0.5460    -1.3860 hc         1 CKJ       0.034367
     41 H07          1.1750    -4.0310     0.9010 ha         1 CKJ       0.125000
     42 H08          2.7430    -5.8990     0.4500 ha         1 CKJ       0.133000
     43 H10          5.8140    -3.0870    -0.6560 ha         1 CKJ       0.133000
     44 H23         -0.3380    -3.2180    -0.5670 h4         1 CKJ       0.025100
     45 H32          1.8520     2.1690     2.2370 h1         1 CKJ       0.067700
     46 H32A         0.1000     2.0550     2.4550 h1         1 CKJ       0.067700
     47 H33         -0.2570     4.4910     1.9710 hc         1 CKJ       0.042700
     48 H33A         1.4850     4.7000     1.8300 hc         1 CKJ       0.042700
     49 H35          2.8010     3.1880     0.0290 hc         1 CKJ       0.042700
     50 H35A         1.8660     2.0590    -0.9460 hc         1 CKJ       0.042700
     51 H36          2.4410     4.1200    -2.2420 hc         1 CKJ       0.047950
     52 H36A         0.6970     3.9090    -2.1010 hc         1 CKJ       0.047950
     53 H37          2.4400     5.7860    -0.3890 h1         1 CKJ       0.012700
     54 H38         -0.6170     5.4100    -0.3060 hc         1 CKJ       0.047950
     55 H38A         0.3140     6.5500     0.6630 hc         1 CKJ       0.047950
     56 HN39         1.2780     7.4910    -1.4620 hn         1 CKJ       0.392500
     57 HN3A         2.0660     6.5890    -2.5400 hn         1 CKJ       0.392500
     58 N01         -3.6440    -0.3460     0.0950 nu         1 CKJ      -0.919100
@<TRIPOS>BOND
     1     1    10 ar  
     2     1    14 ar  
     3     1    29 1   
     4     2    13 1   
     5     3     6 1   
     6     3    21 2   
     7     4    22 1   
     8     4    23 1   
     9     4    24 1   
    10     4    30 1   
    11     5     7 1   
    12     5    32 1   
    13     5    33 1   
    14     5    58 1   
    15     6    20 1   
    16     6    22 1   
    17     7     8 1   
    18     7    34 1   
    19     7    35 1   
    20     8     9 1   
    21     8    36 1   
    22     8    37 1   
    23     9    38 1   
    24     9    39 1   
    25     9    40 1   
    26    10    11 ar  
    27    10    21 1   
    28    11    12 ar  
    29    11    41 1   
    30    12    13 ar  
    31    12    42 1   
    32    13    14 ar  
    33    14    43 1   
    34    15    16 ar  
    35    15    19 ar  
    36    15    44 1   
    37    16    17 ar  
    38    17    18 ar  
    39    17    58 1   
    40    18    20 ar  
    41    19    20 ar  
    42    19    21 1   
    43    22    45 1   
    44    22    46 1   
    45    23    27 1   
    46    23    47 1   
    47    23    48 1   
    48    24    25 1   
    49    24    49 1   
    50    24    50 1   
    51    25    26 1   
    52    25    51 1   
    53    25    52 1   
    54    26    27 1   
    55    26    28 1   
    56    26    53 1   
    57    27    54 1   
    58    27    55 1   
    59    28    56 1   
    60    28    57 1   
    61    31    58 1   
@<TRIPOS>SUBSTRUCTURE
     1 CKJ         1 TEMP              0 ****  ****    0 ROOT
