@<TRIPOS>MOLECULE
CKJ
   58    61     1     0     0
SMALL
bcc


@<TRIPOS>ATOM
      1 C            3.8310    -1.9260     0.0080 ca         1 CKJ      -0.079500
      2 F            5.4020    -5.1370    -0.4370 f          1 CKJ      -0.142900
      3 N            1.8060    -0.1170     1.0030 nc         1 CKJ      -0.520100
      4 C01          0.6660     3.0220     0.5280 c6         1 CKJ      -0.083700
      5 C02         -4.8610    -1.1870    -0.2320 c3         1 CKJ       0.239800
      6 N02          0.6730     0.6050     1.1270 na         1 CKJ      -0.000800
      7 C03         -6.1780    -0.4340    -0.3340 c3         1 CKJ      -0.098400
      8 C04         -7.3350    -1.3510    -0.7090 c3         1 CKJ      -0.072400
      9 C05         -8.6560    -0.6030    -0.8250 c3         1 CKJ      -0.090100
     10 C06          2.5090    -2.3020     0.2560 ca         1 CKJ      -0.113900
     11 C07          2.1920    -3.6600     0.2680 ca         1 CKJ      -0.079500
     12 C08          3.1620    -4.6230     0.0340 ca         1 CKJ      -0.175500
     13 C09          4.4570    -4.2120    -0.2090 ca         1 CKJ       0.142900
     14 C10          4.8110    -2.8760    -0.2240 ca         1 CKJ      -0.175500
     15 C23         -0.9010    -2.2040    -0.2070 ca         1 CKJ       0.556200
     16 N24         -2.1640    -1.8450    -0.2460 nb         1 CKJ      -0.790000
     17 C25         -2.4980    -0.6120     0.2100 ca         1 CKJ       0.940900
     18 N26         -1.6580     0.3060     0.6880 nb         1 CKJ      -0.806000
     19 C27          0.0770    -1.3500     0.2960 ca         1 CKJ      -0.514500
     20 C28         -0.3980    -0.0950     0.7120 ca         1 CKJ       0.513800
     21 C31          1.4860    -1.2890     0.5120 cd         1 CKJ       0.450500
     22 C32          0.6980     1.9610     1.6230 c3         1 CKJ       0.073300
     23 C33          0.6400     4.4060     1.1750 c6         1 CKJ      -0.069400
     24 C35          1.8410     2.9060    -0.4400 c6         1 CKJ      -0.069400
     25 C36          1.8280     4.0300    -1.4710 c6         1 CKJ      -0.073400
     26 C37          1.8290     5.4020    -0.8080 c6         1 CKJ       0.161500
     27 C38          0.6360     5.5180     0.1330 c6         1 CKJ      -0.073400
     28 N39          1.7700     6.4460    -1.8210 n8         1 CKJ      -0.886800
     29 H            4.0950    -0.8770    -0.0160 ha         1 CKJ       0.143000
     30 H01         -0.2640     2.8980    -0.0420 hc         1 CKJ       0.068700
     31 HN01        -4.0520     0.5970     0.5730 hn         1 CKJ       0.448800
     32 H02         -4.6180    -1.6410    -1.1950 h1         1 CKJ       0.053200
     33 H02A        -4.9570    -2.0070     0.4880 h1         1 CKJ       0.053200
     34 H03         -6.3970     0.0510     0.6230 hc         1 CKJ       0.045700
     35 H03A        -6.0820     0.3640    -1.0760 hc         1 CKJ       0.045700
     36 H04         -7.1110    -1.8470    -1.6580 hc         1 CKJ       0.041700
     37 H04A        -7.4270    -2.1450     0.0370 hc         1 CKJ       0.041700
     38 H05         -9.4690    -1.2740    -1.1060 hc         1 CKJ       0.034367
     39 H05A        -8.9280    -0.1320     0.1210 hc         1 CKJ       0.034367
     40 H05B        -8.5990     0.1820    -1.5810 hc         1 CKJ       0.034367
     41 H07          1.1850    -3.9860     0.4890 ha         1 CKJ       0.143000
     42 H08          2.9120    -5.6760     0.0510 ha         1 CKJ       0.151000
     43 H10          5.8330    -2.5800    -0.4230 ha         1 CKJ       0.151000
     44 H23         -0.6660    -3.1910    -0.5930 h4         1 CKJ       0.025100
     45 H32          1.5990     2.0610     2.2280 h1         1 CKJ       0.067700
     46 H32A        -0.1570     2.0900     2.2900 h1         1 CKJ       0.067700
     47 H33         -0.2350     4.4980     1.8250 hc         1 CKJ       0.042700
     48 H33A         1.5180     4.5150     1.8230 hc         1 CKJ       0.042700
     49 H35          2.7800     2.9390     0.1270 hc         1 CKJ       0.042700
     50 H35A         1.8250     1.9410    -0.9510 hc         1 CKJ       0.042700
     51 H36          2.6920     3.9350    -2.1360 hc         1 CKJ       0.047950
     52 H36A         0.9360     3.9470    -2.1020 hc         1 CKJ       0.047950
     53 H37          2.7420     5.4680    -0.1910 h1         1 CKJ       0.012700
     54 H38         -0.2850     5.4700    -0.4580 hc         1 CKJ       0.047950
     55 H38A         0.6420     6.4930     0.6290 hc         1 CKJ       0.047950
     56 HN39         1.8220     7.3530    -1.3720 hn         1 CKJ       0.337300
     57 HN3A         2.5940     6.3890    -2.4090 hn         1 CKJ       0.337300
     58 N01         -3.7990    -0.2860     0.1600 nu         1 CKJ      -0.863900
@<TRIPOS>BOND
     1     1    10 ar  
     2     1    14 ar  
     3     1    29 1   
     4     2    13 1   
     5     3     6 1   
     6     3    21 2   
     7     4    22 1   
     8     4    23 1   
     9     4    24 1   
    10     4    30 1   
    11     5     7 1   
    12     5    32 1   
    13     5    33 1   
    14     5    58 1   
    15     6    20 1   
    16     6    22 1   
    17     7     8 1   
    18     7    34 1   
    19     7    35 1   
    20     8     9 1   
    21     8    36 1   
    22     8    37 1   
    23     9    38 1   
    24     9    39 1   
    25     9    40 1   
    26    10    11 ar  
    27    10    21 1   
    28    11    12 ar  
    29    11    41 1   
    30    12    13 ar  
    31    12    42 1   
    32    13    14 ar  
    33    14    43 1   
    34    15    16 ar  
    35    15    19 ar  
    36    15    44 1   
    37    16    17 ar  
    38    17    18 ar  
    39    17    58 1   
    40    18    20 ar  
    41    19    20 ar  
    42    19    21 1   
    43    22    45 1   
    44    22    46 1   
    45    23    27 1   
    46    23    47 1   
    47    23    48 1   
    48    24    25 1   
    49    24    49 1   
    50    24    50 1   
    51    25    26 1   
    52    25    51 1   
    53    25    52 1   
    54    26    27 1   
    55    26    28 1   
    56    26    53 1   
    57    27    54 1   
    58    27    55 1   
    59    28    56 1   
    60    28    57 1   
    61    31    58 1   
@<TRIPOS>SUBSTRUCTURE
     1 CKJ         1 TEMP              0 ****  ****    0 ROOT
