@<TRIPOS>MOLECULE
CKK
   66    70     1     0     0
SMALL
bcc


@<TRIPOS>ATOM
      1 N14          2.4600    -0.6360     0.2890 ns         1 CKK      -0.489100
      2 C17         -0.6050     1.1830    -0.6850 ca         1 CKK       0.179900
      3 C16          0.7400     0.8880    -0.6030 ca         1 CKK      -0.191000
      4 C15          1.1390    -0.2150     0.1530 ca         1 CKK       0.120600
      5 C19          0.1690    -0.9770     0.8100 ca         1 CKK      -0.205000
      6 C20         -1.1720    -0.6510     0.7170 ca         1 CKK      -0.064000
      7 C21         -1.5710     0.4350    -0.0390 ca         1 CKK       0.029100
      8 C23         -3.4340     1.7810     0.3740 cc         1 CKK       0.742600
      9 C12          3.5860    -0.0570    -0.2190 c          1 CKK       0.801100
     10 C27         -4.8030     2.0200     0.1220 cc         1 CKK      -0.254600
     11 C33         -6.6790    -2.0140    -1.7070 c6         1 CKK       0.166300
     12 C2          11.0430    -0.2780    -0.1090 ca         1 CKK       0.145900
     13 C3          10.4060    -0.3160     1.1150 ca         1 CKK      -0.167000
     14 C4           9.0900    -0.7550     1.1620 ca         1 CKK      -0.082500
     15 C5          10.4140    -0.6680    -1.2760 ca         1 CKK      -0.167000
     16 C6           9.0990    -1.1040    -1.2050 ca         1 CKK      -0.082500
     17 C7           8.4210    -1.1530     0.0090 ca         1 CKK      -0.096300
     18 C8           6.9930    -1.5980     0.0730 c3         1 CKK      -0.113100
     19 O10          6.3570     0.5960    -0.6830 o          1 CKK      -0.495100
     20 N11          4.7160    -0.8230     0.0400 ns         1 CKK      -0.634500
     21 O13          3.6080     0.9890    -0.8260 o          1 CKK      -0.544100
     22 O22         -2.9080     0.7060    -0.2100 os         1 CKK      -0.334400
     23 N24         -2.7180     2.5440     1.1350 nd         1 CKK      -0.807000
     24 C25         -3.3430     3.6130     1.6880 cd         1 CKK       0.648900
     25 N26         -4.5800     3.9580     1.5540 nc         1 CKK      -0.531800
     26 N28         -5.3040     3.1440     0.7710 na         1 CKK       0.220200
     27 C29         -6.6120     3.2810     0.4930 cc         1 CKK      -0.117100
     28 C30         -6.9710     2.2390    -0.3430 cd         1 CKK      -0.177000
     29 C31         -5.8440     1.4390    -0.5900 cd         1 CKK      -0.063200
     30 C32         -5.8300     0.1970    -1.4230 c3         1 CKK       0.232000
     31 N34         -6.5420    -0.8990    -0.7850 n3         1 CKK      -0.709600
     32 C35         -5.9080    -1.3180     0.4530 c6         1 CKK       0.166300
     33 C36         -6.7000    -2.4260     1.1290 c6         1 CKK      -0.075400
     34 C37         -6.8720    -3.6230     0.2050 c6         1 CKK       0.161500
     35 C38         -7.4950    -3.1430    -1.0980 c6         1 CKK      -0.075400
     36 N39         -7.7160    -4.6280     0.8360 n8         1 CKK      -0.882800
     37 HN14         2.5740    -1.4760     0.8360 hn         1 CKK       0.315500
     38 H16          1.4430     1.5110    -1.1310 ha         1 CKK       0.191000
     39 H19          0.4620    -1.8380     1.3970 ha         1 CKK       0.135000
     40 H20         -1.9120    -1.2530     1.2270 ha         1 CKK       0.150000
     41 H33         -7.1700    -1.6570    -2.6160 h1         1 CKK       0.031200
     42 H33A        -5.6920    -2.4020    -2.0160 h1         1 CKK       0.031200
     43 H4           8.5820    -0.7910     2.1180 ha         1 CKK       0.133500
     44 H5          10.9380    -0.6310    -2.2220 ha         1 CKK       0.152500
     45 H6           8.6000    -1.4130    -2.1150 ha         1 CKK       0.133500
     46 H8           6.8020    -2.4000    -0.6480 hc         1 CKK       0.066200
     47 H8A          6.7590    -2.0140     1.0560 hc         1 CKK       0.066200
     48 HN11         4.5830    -1.7380     0.4470 hn         1 CKK       0.310500
     49 H25         -2.7410     4.2550     2.3170 h5         1 CKK       0.062100
     50 H29         -7.1870     4.0960     0.9010 h4         1 CKK       0.186000
     51 H30         -7.9600     2.0750    -0.7400 ha         1 CKK       0.165000
     52 H32         -6.3350     0.4120    -2.3690 h1         1 CKK       0.045200
     53 H32A        -4.8000    -0.0830    -1.6820 h1         1 CKK       0.045200
     54 H35         -4.8720    -1.6600     0.2780 h1         1 CKK       0.031200
     55 H35A        -5.8450    -0.4630     1.1290 h1         1 CKK       0.031200
     56 H36         -6.1870    -2.7220     2.0490 hc         1 CKK       0.053450
     57 H36A        -7.6870    -2.0510     1.4160 hc         1 CKK       0.053450
     58 H37         -5.8660    -4.0090    -0.0310 h1         1 CKK       0.007700
     59 H38         -8.5150    -2.7980    -0.9040 hc         1 CKK       0.053450
     60 H38A        -7.5610    -3.9650    -1.8170 hc         1 CKK       0.053450
     61 HN39        -7.7870    -5.4360     0.2290 hn         1 CKK       0.335800
     62 HN3A        -7.2610    -4.9610     1.6770 hn         1 CKK       0.335800
     63 F18         -0.9910     2.2300    -1.4210 f          1 CKK      -0.120900
     64 C9           6.0210    -0.4730    -0.2370 c          1 CKK       0.679100
     65 H3          10.9230    -0.0110     2.0150 ha         1 CKK       0.152500
     66 F1          12.3170     0.1470    -0.1670 f          1 CKK      -0.141900
@<TRIPOS>BOND
     1     1     4 1   
     2     1     9 1   
     3     1    37 1   
     4     2     3 ar  
     5     2     7 ar  
     6     2    63 1   
     7     3     4 ar  
     8     3    38 1   
     9     4     5 ar  
    10     5     6 ar  
    11     5    39 1   
    12     6     7 ar  
    13     6    40 1   
    14     7    22 1   
    15     8    10 1   
    16     8    22 1   
    17     8    23 2   
    18     9    20 1   
    19     9    21 2   
    20    10    26 1   
    21    10    29 2   
    22    11    31 1   
    23    11    35 1   
    24    11    41 1   
    25    11    42 1   
    26    12    13 ar  
    27    12    15 ar  
    28    12    66 1   
    29    13    14 ar  
    30    13    65 1   
    31    14    17 ar  
    32    14    43 1   
    33    15    16 ar  
    34    15    44 1   
    35    16    17 ar  
    36    16    45 1   
    37    17    18 1   
    38    18    46 1   
    39    18    47 1   
    40    18    64 1   
    41    19    64 2   
    42    20    48 1   
    43    20    64 1   
    44    23    24 1   
    45    24    25 2   
    46    24    49 1   
    47    25    26 1   
    48    26    27 1   
    49    27    28 2   
    50    27    50 1   
    51    28    29 1   
    52    28    51 1   
    53    29    30 1   
    54    30    31 1   
    55    30    52 1   
    56    30    53 1   
    57    31    32 1   
    58    32    33 1   
    59    32    54 1   
    60    32    55 1   
    61    33    34 1   
    62    33    56 1   
    63    33    57 1   
    64    34    35 1   
    65    34    36 1   
    66    34    58 1   
    67    35    59 1   
    68    35    60 1   
    69    36    61 1   
    70    36    62 1   
@<TRIPOS>SUBSTRUCTURE
     1 CKK         1 TEMP              0 ****  ****    0 ROOT
