@<TRIPOS>MOLECULE
CKK
   66    70     1     0     0
SMALL
No Charge or Current Charge


@<TRIPOS>ATOM
      1 N14          2.7100    -1.0210    -0.7370 ns         1 CKK      -0.163000
      2 C17         -0.6910     0.6040    -0.7900 ca         1 CKK       0.215000
      3 C16          0.6640     0.3710    -1.0780 ca         1 CKK      -0.173000
      4 C15          1.3430    -0.7200    -0.4930 ca         1 CKK       0.028000
      5 C19          0.6330    -1.5780     0.3670 ca         1 CKK      -0.187000
      6 C20         -0.7230    -1.3500     0.6580 ca         1 CKK      -0.046000
      7 C21         -1.3900    -0.2460     0.1030 ca         1 CKK       0.029100
      8 C23         -3.0160     1.1960     0.8640 cc         1 CKK       0.414300
      9 C12          3.6930    -0.3630    -1.4590 c          1 CKK       0.667100
     10 C27         -4.1890     1.8280     0.4180 cc         1 CKK      -0.240000
     11 C33         -6.6730    -1.9330    -1.4210 c6         1 CKK       0.166300
     12 C2           9.4740     0.5110     1.6490 ca         1 CKK       0.181000
     13 C3           8.4420    -0.3780     1.9870 ca         1 CKK      -0.149000
     14 C4           7.7320    -1.0450     0.9730 ca         1 CKK      -0.064500
     15 C5           9.8000     0.7380     0.3040 ca         1 CKK      -0.149000
     16 C6           9.0920     0.0720    -0.7110 ca         1 CKK      -0.064500
     17 C7           8.0540    -0.8240    -0.3820 ca         1 CKK      -0.096300
     18 C8           7.2810    -1.5420    -1.4850 c3         1 CKK      -0.113100
     19 O10          6.2580     0.2540    -2.7310 o          1 CKK      -0.495100
     20 N11          4.8880    -1.0320    -1.4300 ns         1 CKK      -0.500500
     21 O13          3.5280     0.6910    -2.0530 o          1 CKK      -0.544100
     22 O22         -2.7360    -0.0760     0.4000 os         1 CKK      -0.334400
     23 N24         -2.1530     1.7750     1.6890 nd         1 CKK      -0.281000
     24 C25         -2.5210     3.0760     2.0910 cd         1 CKK       0.122900
     25 N26         -3.6290     3.7580     1.7230 nc         1 CKK      -0.268800
     26 N28         -4.4540     3.0760     0.8650 na         1 CKK       0.270900
     27 C29         -5.6340     3.5930     0.3660 cc         1 CKK      -0.167100
     28 C30         -6.1090     2.5770    -0.4410 cd         1 CKK      -0.227000
     29 C31         -5.2140     1.4620    -0.4240 cd         1 CKK      -0.063200
     30 C32         -5.4130     0.1710    -1.1950 c3         1 CKK       0.232000
     31 N34         -6.3480    -0.7780    -0.5410 n3         1 CKK      -0.709600
     32 C35         -5.8720    -1.2320     0.7980 c6         1 CKK       0.166300
     33 C36         -6.9110    -2.1390     1.4990 c6         1 CKK      -0.075400
     34 C37         -7.2660    -3.3480     0.6050 c6         1 CKK       0.161500
     35 C38         -7.7360    -2.8600    -0.7840 c6         1 CKK      -0.075400
     36 N39         -8.2920    -4.1960     1.2440 n8         1 CKK      -0.993200
     37 HN14         3.0170    -1.8790    -0.2980 hn         1 CKK       0.149000
     38 H16          1.1570     1.0450    -1.7690 ha         1 CKK       0.173000
     39 H19          1.1350    -2.4320     0.8180 ha         1 CKK       0.117000
     40 H20         -1.2580    -2.0240     1.3240 ha         1 CKK       0.132000
     41 H33         -7.0540    -1.5780    -2.3900 h1         1 CKK       0.031200
     42 H33A        -5.7650    -2.5190    -1.6270 h1         1 CKK       0.031200
     43 H4           6.9320    -1.7330     1.2430 ha         1 CKK       0.115500
     44 H5          10.6000     1.4290     0.0500 ha         1 CKK       0.134500
     45 H6           9.3470     0.2530    -1.7530 ha         1 CKK       0.115500
     46 H8           7.9470    -1.7280    -2.3350 hc         1 CKK       0.066200
     47 H8A          6.9140    -2.5010    -1.1000 hc         1 CKK       0.066200
     48 HN11         4.8990    -1.8640    -0.8610 hn         1 CKK       0.310500
     49 H25         -1.8300     3.5640     2.7660 h5         1 CKK       0.062100
     50 H29         -6.0090     4.5790     0.6160 h4         1 CKK       0.236000
     51 H30         -7.0360     2.6170    -1.0100 ha         1 CKK       0.215000
     52 H32         -5.8030     0.4430    -2.1850 h1         1 CKK       0.045200
     53 H32A        -4.4410    -0.3080    -1.3690 h1         1 CKK       0.045200
     54 H35         -4.9260    -1.7840     0.6960 h1         1 CKK       0.031200
     55 H35A        -5.6740    -0.3700     1.4520 h1         1 CKK       0.031200
     56 H36         -6.5080    -2.4810     2.4610 hc         1 CKK       0.053450
     57 H36A        -7.8130    -1.5530     1.7210 hc         1 CKK       0.053450
     58 H37         -6.3690    -3.9720     0.4780 h1         1 CKK       0.007700
     59 H38         -8.6860    -2.3150    -0.6930 hc         1 CKK       0.053450
     60 H38A        -7.9210    -3.7150    -1.4460 hc         1 CKK       0.053450
     61 HN39        -8.4340    -5.0320     0.6660 hn         1 CKK       0.391000
     62 HN3A        -7.9090    -4.5730     2.1180 hn         1 CKK       0.391000
     63 F18         -1.3180     1.6340    -1.4050 f          1 CKK      -0.156000
     64 C9           6.1020    -0.6870    -1.9680 c          1 CKK       0.612100
     65 H3           8.1940    -0.5480     3.0310 ha         1 CKK       0.134500
     66 F1          10.1550     1.1520     2.6240 f          1 CKK      -0.177000
@<TRIPOS>BOND
     1     1     4 1   
     2     1     9 1   
     3     1    37 1   
     4     2     3 ar  
     5     2     7 ar  
     6     2    63 1   
     7     3     4 ar  
     8     3    38 1   
     9     4     5 ar  
    10     5     6 ar  
    11     5    39 1   
    12     6     7 ar  
    13     6    40 1   
    14     7    22 1   
    15     8    10 1   
    16     8    22 1   
    17     8    23 2   
    18     9    20 1   
    19     9    21 2   
    20    10    26 1   
    21    10    29 2   
    22    11    31 1   
    23    11    35 1   
    24    11    41 1   
    25    11    42 1   
    26    12    13 ar  
    27    12    15 ar  
    28    12    66 1   
    29    13    14 ar  
    30    13    65 1   
    31    14    17 ar  
    32    14    43 1   
    33    15    16 ar  
    34    15    44 1   
    35    16    17 ar  
    36    16    45 1   
    37    17    18 1   
    38    18    46 1   
    39    18    47 1   
    40    18    64 1   
    41    19    64 2   
    42    20    48 1   
    43    20    64 1   
    44    23    24 1   
    45    24    25 2   
    46    24    49 1   
    47    25    26 1   
    48    26    27 1   
    49    27    28 2   
    50    27    50 1   
    51    28    29 1   
    52    28    51 1   
    53    29    30 1   
    54    30    31 1   
    55    30    52 1   
    56    30    53 1   
    57    31    32 1   
    58    32    33 1   
    59    32    54 1   
    60    32    55 1   
    61    33    34 1   
    62    33    56 1   
    63    33    57 1   
    64    34    35 1   
    65    34    36 1   
    66    34    58 1   
    67    35    59 1   
    68    35    60 1   
    69    36    61 1   
    70    36    62 1   
@<TRIPOS>SUBSTRUCTURE
     1 CKK         1 TEMP              0 ****  ****    0 ROOT
