@<TRIPOS>MOLECULE
CKL
   55    58     1     0     0
SMALL
No Charge or Current Charge


@<TRIPOS>ATOM
      1 C2          -8.1720     1.2910     0.1240 cc         1 CKL       0.777800
      2 C4          -6.2690     0.8840     1.4510 c          1 CKL       0.621200
      3 C5          -5.7180     0.2600     0.2330 cc         1 CKL      -0.219600
      4 C6          -6.5070     0.2280    -0.9090 cd         1 CKL       0.469600
      5 O24          4.3520    -3.7430     0.6220 o          1 CKL      -0.534000
      6 O23          4.3100    -2.3360     2.7700 o          1 CKL      -0.534000
      7 N22          4.9650    -1.3800     0.5690 nu         1 CKL      -0.871000
      8 C25          4.8090    -0.0060     0.5760 ca         1 CKL       0.396900
      9 C30          5.0200     0.7290    -0.6110 ca         1 CKL      -0.088900
     10 O31          5.3680     0.0190    -1.7660 os         1 CKL      -0.326100
     11 C32          5.6040     0.6220    -3.0510 c3         1 CKL       0.137900
     12 C29          4.8440     2.1440    -0.5200 ca         1 CKL       0.358300
     13 O33          5.0240     2.9520    -1.6280 os         1 CKL      -0.443300
     14 C34          4.8490     4.3820    -1.5590 c3         1 CKL       0.156900
     15 N28          4.4980     2.7190     0.6530 nb         1 CKL      -0.286000
     16 C27          4.3290     1.9130     1.7160 ca         1 CKL       0.199900
     17 N26          4.4700     0.5780     1.7360 nb         1 CKL      -0.252000
     18 C18          2.3390    -2.0290     0.9700 ca         1 CKL      -0.387500
     19 C17          1.7600    -2.3970    -0.2590 ca         1 CKL       0.053000
     20 C16          0.4470    -2.0000    -0.5560 ca         1 CKL      -0.235500
     21 C19          1.6050    -1.2620     1.8940 ca         1 CKL       0.053000
     22 C20          0.2920    -0.8710     1.5840 ca         1 CKL      -0.235500
     23 C15         -0.2880    -1.2390     0.3650 ca         1 CKL       0.410000
     24 N14         -1.5890    -0.8330     0.0920 nu         1 CKL      -0.956200
     25 C8          -3.9230    -0.7870    -0.8850 c2         1 CKL       0.308300
     26 C9          -4.6930    -0.8060    -2.2270 c6         1 CKL       0.159500
     27 N10         -6.0930    -0.3220    -2.0680 nu         1 CKL      -0.793200
     28 N1          -7.7700     0.7580    -0.9910 nd         1 CKL      -0.775300
     29 N7          -4.4240    -0.2930     0.2270 ne         1 CKL      -0.473300
     30 O12         -5.6920     0.9720     2.5250 o          1 CKL      -0.528000
     31 N3          -7.5110     1.3690     1.2800 ns         1 CKL      -0.452400
     32 N11         -9.3760     1.8170     0.1020 nv         1 CKL      -1.053200
     33 H1           5.1270    -1.7680    -0.3480 hn         1 CKL       0.528000
     34 H2           4.7070     1.1440    -3.4090 h1         1 CKL       0.038033
     35 H3           6.4400     1.3310    -3.0040 h1         1 CKL       0.038033
     36 H4           5.8590    -0.1500    -3.7880 h1         1 CKL       0.038033
     37 H5           3.8250     4.6380    -1.2570 h1         1 CKL       0.051033
     38 H6           5.5480     4.8280    -0.8390 h1         1 CKL       0.051033
     39 H7           5.0370     4.8370    -2.5400 h1         1 CKL       0.051033
     40 H8           4.0520     2.3900     2.6540 h5         1 CKL       0.055100
     41 H9           2.3200    -2.9850    -0.9860 ha         1 CKL       0.132000
     42 H10          0.0100    -2.2850    -1.5070 ha         1 CKL       0.117000
     43 H11          2.0430    -0.9630     2.8460 ha         1 CKL       0.132000
     44 H12         -0.2700    -0.2780     2.2990 ha         1 CKL       0.117000
     45 H13         -2.0360    -0.2860     0.8330 hn         1 CKL       0.532000
     46 H14         -2.0940    -1.2720    -1.9220 h1         1 CKL       0.046700
     47 H15         -2.6160    -2.4880    -0.7500 h1         1 CKL       0.046700
     48 H16         -4.1570    -0.1780    -2.9530 h1         1 CKL       0.050200
     49 H18         -9.7430     1.8730    -0.8390 hn         1 CKL       0.513000
     50 H19         -9.5120     2.6530     0.6550 hn         1 CKL       0.513000
     51 H20         -4.6930    -1.8320    -2.6230 h1         1 CKL       0.050200
     52 H21         -6.6890    -0.1280    -2.8720 hn         1 CKL       0.507000
     53 H17         -7.9550     1.7850     2.0800 hn         1 CKL       0.327500
     54 C13         -2.5180    -1.4070    -0.9170 c3         1 CKL       0.205500
     55 S21          4.0210    -2.5140     1.3450 sy         1 CKL       1.203600
@<TRIPOS>BOND
     1     1    28 2   
     2     1    31 1   
     3     1    32 1   
     4     2     3 1   
     5     2    30 2   
     6     2    31 1   
     7     3     4 2   
     8     3    29 1   
     9     4    27 1   
    10     4    28 1   
    11     5    55 2   
    12     6    55 2   
    13     7     8 1   
    14     7    33 1   
    15     7    55 1   
    16     8     9 ar  
    17     8    17 ar  
    18     9    10 1   
    19     9    12 ar  
    20    10    11 1   
    21    11    34 1   
    22    11    35 1   
    23    11    36 1   
    24    12    13 1   
    25    12    15 ar  
    26    13    14 1   
    27    14    37 1   
    28    14    38 1   
    29    14    39 1   
    30    15    16 ar  
    31    16    17 ar  
    32    16    40 1   
    33    18    19 ar  
    34    18    21 ar  
    35    18    55 1   
    36    19    20 ar  
    37    19    41 1   
    38    20    23 ar  
    39    20    42 1   
    40    21    22 ar  
    41    21    43 1   
    42    22    23 ar  
    43    22    44 1   
    44    23    24 1   
    45    24    45 1   
    46    24    54 1   
    47    25    26 1   
    48    25    29 2   
    49    25    54 1   
    50    26    27 1   
    51    26    48 1   
    52    26    51 1   
    53    27    52 1   
    54    31    53 1   
    55    32    49 1   
    56    32    50 1   
    57    46    54 1   
    58    47    54 1   
@<TRIPOS>SUBSTRUCTURE
     1 CKL         1 TEMP              0 ****  ****    0 ROOT
