@<TRIPOS>MOLECULE
CKL
   55    58     1     0     0
SMALL
bcc


@<TRIPOS>ATOM
      1 C2          -8.0590     1.2600     0.1410 cc         1 CKL       0.777800
      2 C4          -5.8530     1.2740     1.1650 c          1 CKL       0.763700
      3 C5          -5.4570     0.4710     0.0640 cc         1 CKL      -0.219600
      4 C6          -6.4040     0.1300    -0.9030 cd         1 CKL       0.469600
      5 O24          4.2690    -3.6100     0.5280 o          1 CKL      -0.604800
      6 O23          4.2450    -2.1700     2.5800 o          1 CKL      -0.604800
      7 N22          4.7930    -1.2350     0.2680 nu         1 CKL      -0.815800
      8 C25          4.6650     0.1280     0.3680 ca         1 CKL       0.725200
      9 C30          5.2000     0.9420    -0.6250 ca         1 CKL      -0.219500
     10 O31          5.8300     0.4100    -1.7000 os         1 CKL      -0.302900
     11 C32          5.0100     0.3050    -2.8660 c3         1 CKL       0.114700
     12 C29          5.0480     2.3160    -0.4330 ca         1 CKL       0.686600
     13 O33          5.5500     3.1200    -1.3540 os         1 CKL      -0.420100
     14 C34          5.4070     4.5270    -1.1740 c3         1 CKL       0.133700
     15 N28          4.4240     2.8110     0.6240 nb         1 CKL      -0.812000
     16 C27          3.9430     1.9380     1.4930 ca         1 CKL       0.725900
     17 N26          4.0350     0.6260     1.4290 nb         1 CKL      -0.778000
     18 C18          2.2510    -1.9800     0.9010 ca         1 CKL      -0.387500
     19 C17          1.6560    -2.3760    -0.2940 ca         1 CKL       0.035000
     20 C16          0.3330    -2.0780    -0.5440 ca         1 CKL      -0.253500
     21 C19          1.5080    -1.2820     1.8530 ca         1 CKL       0.035000
     22 C20          0.1890    -0.9850     1.6100 ca         1 CKL      -0.253500
     23 C15         -0.4320    -1.3670     0.4020 ca         1 CKL       0.271600
     24 N14         -1.7230    -1.0530     0.1850 nu         1 CKL      -0.762600
     25 C8          -3.8000    -0.7140    -0.9860 c2         1 CKL       0.308300
     26 C9          -4.6260    -0.8580    -2.2370 c6         1 CKL       0.159500
     27 N10         -6.0210    -0.6640    -1.9140 nu         1 CKL      -0.738000
     28 N1          -7.6940     0.5020    -0.8680 nd         1 CKL      -0.775300
     29 N7          -4.1810    -0.0710     0.0370 ne         1 CKL      -0.473300
     30 O12         -5.1650     1.6460     2.1080 o          1 CKL      -0.603500
     31 N3          -7.1990     1.6570     1.1070 ns         1 CKL      -0.519400
     32 N11         -9.3280     1.6580     0.2370 nv         1 CKL      -0.942800
     33 H1           5.2660    -1.6200    -0.5400 hn         1 CKL       0.472800
     34 H2           4.1070    -0.2760    -2.6650 h1         1 CKL       0.038033
     35 H3           4.7210     1.2870    -3.2440 h1         1 CKL       0.038033
     36 H4           5.5990    -0.2080    -3.6230 h1         1 CKL       0.038033
     37 H5           4.3580     4.8220    -1.1390 h1         1 CKL       0.051033
     38 H6           5.9010     4.8660    -0.2630 h1         1 CKL       0.051033
     39 H7           5.8830     4.9830    -2.0370 h1         1 CKL       0.051033
     40 H8           3.4210     2.3460     2.3510 h5         1 CKL       0.055100
     41 H9           2.2170    -2.9230    -1.0410 ha         1 CKL       0.150000
     42 H10         -0.1070    -2.4060    -1.4760 ha         1 CKL       0.135000
     43 H11          1.9600    -0.9690     2.7830 ha         1 CKL       0.150000
     44 H12         -0.3820    -0.4430     2.3530 ha         1 CKL       0.135000
     45 H13         -2.2250    -0.5050     0.8690 hn         1 CKL       0.476800
     46 H14         -1.9050    -0.9440    -1.9050 h1         1 CKL       0.046700
     47 H15         -2.5440    -2.4120    -1.1940 h1         1 CKL       0.046700
     48 H16         -4.2730    -0.1350    -2.9870 h1         1 CKL       0.050200
     49 H18         -9.9710     1.4200    -0.4980 hn         1 CKL       0.457800
     50 H19         -9.6380     2.3030     0.9430 hn         1 CKL       0.457800
     51 H20         -4.4890    -1.8490    -2.6720 h1         1 CKL       0.050200
     52 H21         -6.7070    -0.8840    -2.6180 hn         1 CKL       0.451800
     53 H17         -7.5350     2.2320     1.8670 hn         1 CKL       0.327500
     54 C13         -2.4360    -1.3320    -1.0240 c3         1 CKL       0.205500
     55 S21          3.9310    -2.3520     1.1770 sy         1 CKL       1.345200
@<TRIPOS>BOND
     1     1    28 2   
     2     1    31 1   
     3     1    32 1   
     4     2     3 1   
     5     2    30 2   
     6     2    31 1   
     7     3     4 2   
     8     3    29 1   
     9     4    27 1   
    10     4    28 1   
    11     5    55 2   
    12     6    55 2   
    13     7     8 1   
    14     7    33 1   
    15     7    55 1   
    16     8     9 ar  
    17     8    17 ar  
    18     9    10 1   
    19     9    12 ar  
    20    10    11 1   
    21    11    34 1   
    22    11    35 1   
    23    11    36 1   
    24    12    13 1   
    25    12    15 ar  
    26    13    14 1   
    27    14    37 1   
    28    14    38 1   
    29    14    39 1   
    30    15    16 ar  
    31    16    17 ar  
    32    16    40 1   
    33    18    19 ar  
    34    18    21 ar  
    35    18    55 1   
    36    19    20 ar  
    37    19    41 1   
    38    20    23 ar  
    39    20    42 1   
    40    21    22 ar  
    41    21    43 1   
    42    22    23 ar  
    43    22    44 1   
    44    23    24 1   
    45    24    45 1   
    46    24    54 1   
    47    25    26 1   
    48    25    29 2   
    49    25    54 1   
    50    26    27 1   
    51    26    48 1   
    52    26    51 1   
    53    27    52 1   
    54    31    53 1   
    55    32    49 1   
    56    32    50 1   
    57    46    54 1   
    58    47    54 1   
@<TRIPOS>SUBSTRUCTURE
     1 CKL         1 TEMP              0 ****  ****    0 ROOT
