@<TRIPOS>MOLECULE
CKM
   78    82     1     0     0
SMALL
No Charge or Current Charge


@<TRIPOS>ATOM
      1 C2           2.2000     1.0260    -1.1530 c6         1 CKM       0.185500
      2 C7           1.8790    -2.5610     1.4080 ca         1 CKM      -0.019500
      3 C9           2.0660    -4.9680     1.7270 ca         1 CKM      -0.059000
      4 C10          3.2740    -4.9680     1.0090 ca         1 CKM      -0.129500
      5 C11          3.7870    -3.7680     0.4850 ca         1 CKM      -0.019500
      6 C12          1.0850     3.1120    -0.0470 c3         1 CKM      -0.026100
      7 C13          0.6830     3.7740     1.2810 ca         1 CKM      -0.148300
      8 C15         -0.6250     3.7880     3.3490 ca         1 CKM      -0.115000
      9 C18          1.2170     5.0330     1.6420 ca         1 CKM       0.185000
     10 C20         -1.7470     1.0530     2.3000 c          1 CKM       0.607100
     11 C22         -1.7720    -0.3450     1.6740 c3         1 CKM      -0.157400
     12 C8           1.3700    -3.7630     1.9280 ca         1 CKM      -0.129500
     13 C16         -0.0880     5.0400     3.6890 ca         1 CKM      -0.069000
     14 C26         -1.6090     0.2170    -1.5120 ca         1 CKM      -0.076500
     15 C30         -3.3520     1.6940    -0.6690 ca         1 CKM      -0.076500
     16 C31         -4.3660    -2.2530    -0.4150 ca         1 CKM      -0.076500
     17 C35         -2.0560    -2.8590     0.0550 ca         1 CKM      -0.076500
     18 C17          0.8340     5.6600     2.8350 ca         1 CKM      -0.158000
     19 C27         -1.3630     1.1130    -2.5680 ca         1 CKM      -0.151250
     20 C29         -3.0950     2.5940    -1.7190 ca         1 CKM      -0.151250
     21 C32         -4.6040    -3.5470    -0.9110 ca         1 CKM      -0.151250
     22 C34         -2.2960    -4.1520    -0.4430 ca         1 CKM      -0.151250
     23 C25         -2.6110     0.4980    -0.5590 ca         1 CKM      -0.092300
     24 C24         -3.0930    -1.8960     0.0790 ca         1 CKM      -0.092300
     25 C14         -0.2520     3.1470     2.1470 ca         1 CKM      -0.006000
     26 C28         -2.1030     2.2990    -2.6650 ca         1 CKM       0.169500
     27 C33         -3.5690    -4.4930    -0.9220 ca         1 CKM       0.169500
     28 C6           3.0840    -2.5610     0.6790 ca         1 CKM      -0.256500
     29 C            3.1620    -0.5430    -3.3960 c6         1 CKM       0.115800
     30 C1           3.2490     1.6050    -2.1600 c6         1 CKM       0.118800
     31 C38          2.1780    -1.1040    -2.3000 c6         1 CKM       0.179500
     32 C39          2.1410    -2.6540    -2.3020 c3         1 CKM      -0.111100
     33 C4           2.0240     1.8900     0.1330 c3         1 CKM      -0.066400
     34 C23         -2.8800    -0.4650     0.6000 c3         1 CKM       0.046900
     35 N3           2.3770    -0.4530    -0.9550 n3         1 CKM      -0.752500
     36 N            3.1420     0.9510    -3.5010 n7         1 CKM      -0.837400
     37 O21         -2.5330     1.3870     3.1780 o          1 CKM      -0.562100
     38 F37         -1.8580     3.1630    -3.6740 f          1 CKM      -0.179000
     39 F36         -3.7970    -5.7350    -1.4010 f          1 CKM      -0.179000
     40 F            2.1130     5.6560     0.8420 f          1 CKM      -0.182000
     41 S            3.7060    -1.0090     0.0050 sy         1 CKM       1.149600
     42 H1           1.2310     1.1410    -1.6590 h1         1 CKM       0.049700
     43 H2           1.3370    -1.6310     1.5660 ha         1 CKM       0.129500
     44 H3           1.6720    -5.8980     2.1300 ha         1 CKM       0.119000
     45 H4           3.8140    -5.9000     0.8550 ha         1 CKM       0.119500
     46 H5           4.7230    -3.7820    -0.0710 ha         1 CKM       0.129500
     47 H6           0.1760     2.7950    -0.5720 hc         1 CKM       0.046200
     48 H7           1.5650     3.8290    -0.7240 hc         1 CKM       0.046200
     49 H8          -1.3210     3.3240     4.0410 ha         1 CKM       0.138000
     50 H9          -0.2370     1.4390     1.0260 hn         1 CKM       0.150000
     51 H10         -0.8050    -0.5430     1.1980 hc         1 CKM       0.063700
     52 H11         -1.9670    -1.0810     2.4630 hc         1 CKM       0.063700
     53 H12          0.4380    -3.7610     2.4870 ha         1 CKM       0.119500
     54 H13         -0.3820     5.5240     4.6180 ha         1 CKM       0.123000
     55 H15         -4.1230     1.9330     0.0600 ha         1 CKM       0.117500
     56 H16         -5.1740    -1.5250    -0.4160 ha         1 CKM       0.117500
     57 H17         -1.0570    -2.6190     0.4080 ha         1 CKM       0.117500
     58 H18          1.2560     6.6270     3.0970 ha         1 CKM       0.135000
     59 H19         -0.5990     0.8910    -3.3070 ha         1 CKM       0.133250
     60 H20         -3.6640     3.5160    -1.8000 ha         1 CKM       0.133250
     61 H21         -5.5870    -3.8160    -1.2890 ha         1 CKM       0.133250
     62 H22         -1.4960    -4.8880    -0.4600 ha         1 CKM       0.133250
     63 H23          4.1860    -0.8780    -3.1820 h1         1 CKM       0.076700
     64 H24          2.8960    -0.9780    -4.3720 h1         1 CKM       0.076700
     65 H25          3.0950     2.6890    -2.2720 h1         1 CKM       0.072200
     66 H26          4.2610     1.4620    -1.7540 h1         1 CKM       0.072200
     67 H27          1.1710    -0.8220    -2.6420 h1         1 CKM       0.052700
     68 H28          3.1320    -3.0910    -2.1410 hc         1 CKM       0.056367
     69 H29          1.4580    -3.0370    -1.5360 hc         1 CKM       0.056367
     70 H30          1.7810    -3.0270    -3.2680 hc         1 CKM       0.056367
     71 H31          1.6220     1.2550     0.9280 hc         1 CKM       0.072200
     72 H32          2.9950     2.2500     0.4930 hc         1 CKM       0.072200
     73 H33         -3.8150    -0.1660     1.0930 hc         1 CKM       0.086700
     74 H34          2.2420     1.2260    -3.9140 hn         1 CKM       0.403000
     75 N19         -0.7450     1.8620     1.7910 ns         1 CKM      -0.170000
     76 O            3.8240    -0.1000     1.1500 o          1 CKM      -0.544500
     77 O5           4.8540    -1.2520    -0.8740 o          1 CKM      -0.544500
     78 H14         -1.0210    -0.6950    -1.4390 ha         1 CKM       0.117500
@<TRIPOS>BOND
     1     1    30 1   
     2     1    33 1   
     3     1    35 1   
     4     1    42 1   
     5     2    12 ar  
     6     2    28 ar  
     7     2    43 1   
     8     3     4 ar  
     9     3    12 ar  
    10     3    44 1   
    11     4     5 ar  
    12     4    45 1   
    13     5    28 ar  
    14     5    46 1   
    15     6     7 1   
    16     6    33 1   
    17     6    47 1   
    18     6    48 1   
    19     7     9 ar  
    20     7    25 ar  
    21     8    13 ar  
    22     8    25 ar  
    23     8    49 1   
    24     9    18 ar  
    25     9    40 1   
    26    10    11 1   
    27    10    37 2   
    28    10    75 1   
    29    11    34 1   
    30    11    51 1   
    31    11    52 1   
    32    12    53 1   
    33    13    18 ar  
    34    13    54 1   
    35    14    19 ar  
    36    14    23 ar  
    37    14    78 1   
    38    15    20 ar  
    39    15    23 ar  
    40    15    55 1   
    41    16    21 ar  
    42    16    24 ar  
    43    16    56 1   
    44    17    22 ar  
    45    17    24 ar  
    46    17    57 1   
    47    18    58 1   
    48    19    26 ar  
    49    19    59 1   
    50    20    26 ar  
    51    20    60 1   
    52    21    27 ar  
    53    21    61 1   
    54    22    27 ar  
    55    22    62 1   
    56    23    34 1   
    57    24    34 1   
    58    25    75 1   
    59    26    38 1   
    60    27    39 1   
    61    28    41 1   
    62    29    31 1   
    63    29    36 1   
    64    29    63 1   
    65    29    64 1   
    66    30    36 1   
    67    30    65 1   
    68    30    66 1   
    69    31    32 1   
    70    31    35 1   
    71    31    67 1   
    72    32    68 1   
    73    32    69 1   
    74    32    70 1   
    75    33    71 1   
    76    33    72 1   
    77    34    73 1   
    78    35    41 1   
    79    36    74 1   
    80    41    76 2   
    81    41    77 2   
    82    50    75 1   
@<TRIPOS>SUBSTRUCTURE
     1 CKM         1 TEMP              0 ****  ****    0 ROOT
