@<TRIPOS>MOLECULE
CKM
   78    82     1     0     0
SMALL
abcg2


@<TRIPOS>ATOM
      1 C2           3.6330     0.7190    -0.7240 c6         1 CKM       0.185500
      2 C7           1.1170    -2.5050    -0.3290 ca         1 CKM      -0.019500
      3 C9           0.2960    -4.7310     0.0510 ca         1 CKM      -0.059000
      4 C10          1.4170    -5.0220     0.8150 ca         1 CKM      -0.129500
      5 C11          2.3950    -4.0570     1.0180 ca         1 CKM      -0.019500
      6 C12          2.2180     2.7730    -0.8350 c3         1 CKM      -0.026100
      7 C13          1.4200     3.7980    -0.0760 ca         1 CKM      -0.148300
      8 C15         -0.6470     4.5790     0.9420 ca         1 CKM      -0.115000
      9 C18          2.0030     4.9740     0.3750 ca         1 CKM       0.185000
     10 C20         -1.2300     1.5900     0.6600 c          1 CKM       0.607100
     11 C22         -1.6080     0.2590     0.0450 c3         1 CKM      -0.157400
     12 C8           0.1460    -3.4730    -0.5210 ca         1 CKM      -0.129500
     13 C16         -0.0130     5.7330     1.3720 ca         1 CKM      -0.069000
     14 C26         -4.2110     1.4230    -0.7260 ca         1 CKM      -0.076500
     15 C30         -5.2090     0.4600     1.2190 ca         1 CKM      -0.076500
     16 C31         -3.0140    -2.7890     1.0340 ca         1 CKM      -0.076500
     17 C35         -3.4030    -2.0070    -1.1920 ca         1 CKM      -0.076500
     18 C17          1.3280     5.9410     1.0930 ca         1 CKM      -0.158000
     19 C27         -5.3580     2.1760    -0.9510 ca         1 CKM      -0.151250
     20 C29         -6.3620     1.1990     1.0140 ca         1 CKM      -0.151250
     21 C32         -3.1830    -4.1030     0.6180 ca         1 CKM      -0.151250
     22 C34         -3.5680    -3.3120    -1.6320 ca         1 CKM      -0.151250
     23 C25         -4.1170     0.5560     0.3580 ca         1 CKM      -0.092300
     24 C24         -3.1200    -1.7260     0.1440 ca         1 CKM      -0.092300
     25 C14          0.0660     3.6170     0.2350 ca         1 CKM      -0.006000
     26 C28         -6.4150     2.0500    -0.0740 ca         1 CKM       0.169500
     27 C33         -3.4540    -4.3400    -0.7140 ca         1 CKM       0.169500
     28 C6           2.2340    -2.8070     0.4400 ca         1 CKM      -0.256500
     29 C            5.9590    -0.8420    -1.3240 c6         1 CKM       0.115800
     30 C1           5.0420     1.1870    -0.3620 c6         1 CKM       0.118800
     31 C38          4.5410    -1.3320    -1.6370 c6         1 CKM       0.179500
     32 C39          4.4650    -2.8360    -1.8400 c3         1 CKM      -0.111100
     33 C4           2.5340     1.5120    -0.0170 c3         1 CKM      -0.066400
     34 C23         -2.9030    -0.3070     0.6240 c3         1 CKM       0.046900
     35 N3           3.5780    -0.7630    -0.6540 n3         1 CKM      -0.752500
     36 N            6.0730     0.6020    -1.2010 n7         1 CKM      -0.837400
     37 O21         -1.4580     1.8540     1.8240 o          1 CKM      -0.562100
     38 F37         -7.5280     2.7740    -0.2810 f          1 CKM      -0.179000
     39 F36         -3.6090    -5.6070    -1.1330 f          1 CKM      -0.179000
     40 F            3.3060     5.1860     0.1130 f          1 CKM      -0.182000
     41 S            3.4210    -1.5370     0.8000 sy         1 CKM       1.149600
     42 H1           3.4900     0.8990    -1.7960 h1         1 CKM       0.049700
     43 H2           1.0200    -1.5360    -0.8020 ha         1 CKM       0.129500
     44 H3          -0.4630    -5.4870    -0.1040 ha         1 CKM       0.119000
     45 H4           1.5350    -6.0020     1.2560 ha         1 CKM       0.119500
     46 H5           3.2690    -4.2890     1.6090 ha         1 CKM       0.129500
     47 H6           1.6860     2.4800    -1.7450 hc         1 CKM       0.046200
     48 H7           3.1450     3.2280    -1.1830 hc         1 CKM       0.046200
     49 H8          -1.6990     4.4340     1.1450 ha         1 CKM       0.138000
     50 H9          -0.3740     2.1000    -1.1130 hn         1 CKM       0.150000
     51 H10         -1.6410     0.3180    -1.0450 hc         1 CKM       0.063700
     52 H11         -0.7940    -0.4360     0.2810 hc         1 CKM       0.063700
     53 H12         -0.7260    -3.2470    -1.1200 ha         1 CKM       0.119500
     54 H13         -0.5690     6.4800     1.9230 ha         1 CKM       0.123000
     55 H15         -5.1620    -0.2090     2.0710 ha         1 CKM       0.117500
     56 H16         -2.7920    -2.5940     2.0760 ha         1 CKM       0.117500
     57 H17         -3.4990    -1.2030    -1.9110 ha         1 CKM       0.117500
     58 H18          1.8400     6.8360     1.4200 ha         1 CKM       0.135000
     59 H19         -5.4200     2.8490    -1.7950 ha         1 CKM       0.133250
     60 H20         -7.2030     1.1170     1.6910 ha         1 CKM       0.133250
     61 H21         -3.0980    -4.9220     1.3190 ha         1 CKM       0.133250
     62 H22         -3.7830    -3.5250    -2.6710 ha         1 CKM       0.133250
     63 H23          6.3090    -1.3120    -0.4030 h1         1 CKM       0.076700
     64 H24          6.6290    -1.1720    -2.1210 h1         1 CKM       0.076700
     65 H25          5.1090     2.2750    -0.4440 h1         1 CKM       0.072200
     66 H26          5.2360     0.9410     0.6880 h1         1 CKM       0.072200
     67 H27          4.2340    -0.8760    -2.5840 h1         1 CKM       0.052700
     68 H28          4.8200    -3.4080    -0.9850 hc         1 CKM       0.056367
     69 H29          3.4540    -3.1580    -2.0850 hc         1 CKM       0.056367
     70 H30          5.1030    -3.0900    -2.6870 hc         1 CKM       0.056367
     71 H31          1.6300     0.9130     0.0810 hc         1 CKM       0.072200
     72 H32          2.8420     1.7930     0.9910 hc         1 CKM       0.072200
     73 H33         -2.7730    -0.3520     1.7080 hc         1 CKM       0.086700
     74 H34          6.0080     1.0140    -2.1240 hn         1 CKM       0.403000
     75 N19         -0.5720     2.4320    -0.1810 ns         1 CKM      -0.170000
     76 O            2.8020    -0.6200     1.7460 o          1 CKM      -0.544500
     77 O5           4.6500    -2.1920     1.2330 o          1 CKM      -0.544500
     78 H14         -3.3910     1.5330    -1.4240 ha         1 CKM       0.117500
@<TRIPOS>BOND
     1     1    30 1   
     2     1    33 1   
     3     1    35 1   
     4     1    42 1   
     5     2    12 ar  
     6     2    28 ar  
     7     2    43 1   
     8     3     4 ar  
     9     3    12 ar  
    10     3    44 1   
    11     4     5 ar  
    12     4    45 1   
    13     5    28 ar  
    14     5    46 1   
    15     6     7 1   
    16     6    33 1   
    17     6    47 1   
    18     6    48 1   
    19     7     9 ar  
    20     7    25 ar  
    21     8    13 ar  
    22     8    25 ar  
    23     8    49 1   
    24     9    18 ar  
    25     9    40 1   
    26    10    11 1   
    27    10    37 2   
    28    10    75 1   
    29    11    34 1   
    30    11    51 1   
    31    11    52 1   
    32    12    53 1   
    33    13    18 ar  
    34    13    54 1   
    35    14    19 ar  
    36    14    23 ar  
    37    14    78 1   
    38    15    20 ar  
    39    15    23 ar  
    40    15    55 1   
    41    16    21 ar  
    42    16    24 ar  
    43    16    56 1   
    44    17    22 ar  
    45    17    24 ar  
    46    17    57 1   
    47    18    58 1   
    48    19    26 ar  
    49    19    59 1   
    50    20    26 ar  
    51    20    60 1   
    52    21    27 ar  
    53    21    61 1   
    54    22    27 ar  
    55    22    62 1   
    56    23    34 1   
    57    24    34 1   
    58    25    75 1   
    59    26    38 1   
    60    27    39 1   
    61    28    41 1   
    62    29    31 1   
    63    29    36 1   
    64    29    63 1   
    65    29    64 1   
    66    30    36 1   
    67    30    65 1   
    68    30    66 1   
    69    31    32 1   
    70    31    35 1   
    71    31    67 1   
    72    32    68 1   
    73    32    69 1   
    74    32    70 1   
    75    33    71 1   
    76    33    72 1   
    77    34    73 1   
    78    35    41 1   
    79    36    74 1   
    80    41    76 2   
    81    41    77 2   
    82    50    75 1   
@<TRIPOS>SUBSTRUCTURE
     1 CKM         1 TEMP              0 ****  ****    0 ROOT
