@<TRIPOS>MOLECULE
CKN
   64    67     1     0     0
SMALL
No Charge or Current Charge


@<TRIPOS>ATOM
      1 C1          -4.3990     1.3290     0.4300 c3         1 CKN       0.015500
      2 C2          -4.9070    -0.0640     0.1100 cc         1 CKN      -0.103200
      3 C3          -4.2630    -1.2810     0.1140 cd         1 CKN      -0.259000
      4 N6          -3.3490     4.3670    -0.8260 nt         1 CKN      -0.598000
      5 C7           0.1910     0.0120     1.6380 c6         1 CKN      -0.094400
      6 C8           1.7290    -0.1670     1.5950 c6         1 CKN      -0.071400
      7 C9           2.3250     0.0010     0.1550 c6         1 CKN       0.183500
      8 C10          1.5500    -0.9510    -0.8200 c6         1 CKN      -0.071400
      9 C11          0.0130    -0.7650    -0.7540 c6         1 CKN      -0.094400
     10 C12          4.5690     0.6510     1.0510 c6         1 CKN       0.142800
     11 C13          6.0980     0.3760     1.0740 c6         1 CKN       0.096500
     12 C14          5.9190    -0.4020    -1.2990 c6         1 CKN       0.096500
     13 C15          4.3990    -0.0920    -1.2430 c6         1 CKN       0.142800
     14 C16          8.1550     0.2900    -0.3970 c          1 CKN       0.609100
     15 C19         -6.2360    -0.3610    -0.2850 cc         1 CKN      -0.245000
     16 C20         -3.6870     1.9420    -0.8040 c3         1 CKN      -0.167400
     17 C21         -2.8580     3.1730    -0.4400 c          1 CKN       0.603100
     18 O1          -1.7930     3.1020     0.1480 o          1 CKN      -0.635100
     19 C           -5.4970     2.2610     0.9960 c3         1 CKN      -0.087100
     20 C18         -6.3840    -1.7140    -0.4960 cd         1 CKN      -0.176100
     21 N           -5.1410    -2.2880    -0.2410 na         1 CKN       0.290900
     22 N1          -4.8230    -3.6250    -0.3340 nc         1 CKN      -0.311800
     23 C4          -3.5270    -3.8220    -0.0350 cd         1 CKN       0.137900
     24 N2          -2.6030    -2.9180     0.3030 nc         1 CKN      -0.316000
     25 C5          -2.9150    -1.6380     0.3880 cd         1 CKN       0.446900
     26 N3          -1.9640    -0.7110     0.7120 nu         1 CKN      -0.906100
     27 C6          -0.5170    -0.9690     0.6820 c6         1 CKN       0.234500
     28 N4           3.8150    -0.2490     0.1250 n3         1 CKN      -0.714600
     29 N5           6.7480     0.2860    -0.2680 n          1 CKN      -0.414800
     30 C17          8.9960     0.9690     0.6880 c3         1 CKN      -0.176100
     31 O            8.6990    -0.1840    -1.3860 o          1 CKN      -0.610100
     32 H1          -3.6640     1.2380     1.2380 hc         1 CKN       0.065700
     33 H2          -2.8290     5.2060    -0.6150 hn         1 CKN       0.316000
     34 H3          -4.2280     4.4190    -1.3200 hn         1 CKN       0.316000
     35 H4          -0.1690    -0.1460     2.6640 hc         1 CKN       0.053450
     36 H5          -0.0630     1.0480     1.3740 hc         1 CKN       0.053450
     37 H6           2.1530     0.5740     2.2820 hc         1 CKN       0.048950
     38 H7           1.9970    -1.1550     1.9930 hc         1 CKN       0.048950
     39 H8           2.1280     1.0350    -0.1660 h1         1 CKN       0.025700
     40 H9           1.8450    -0.7700    -1.8600 hc         1 CKN       0.048950
     41 H10          1.8050    -1.9960    -0.5970 hc         1 CKN       0.048950
     42 H11         -0.2500     0.2390    -1.1140 hc         1 CKN       0.053450
     43 H12         -0.4710    -1.4780    -1.4350 hc         1 CKN       0.053450
     44 H13          4.2270     0.5420     2.0880 h1         1 CKN       0.040450
     45 H14          4.4080     1.7020     0.7670 h1         1 CKN       0.040450
     46 H15          6.5670     1.1700     1.6710 h1         1 CKN       0.059200
     47 H16          6.2720    -0.5720     1.6040 h1         1 CKN       0.059200
     48 H17          6.0560    -1.4860    -1.1820 h1         1 CKN       0.059200
     49 H18          6.2860    -0.1380    -2.3010 h1         1 CKN       0.059200
     50 H19          4.2370     0.9340    -1.6060 h1         1 CKN       0.040450
     51 H20          3.9250    -0.7680    -1.9640 h1         1 CKN       0.040450
     52 H21         -7.0260     0.3780    -0.4040 ha         1 CKN       0.203000
     53 H22         -3.0100     1.1910    -1.2290 hc         1 CKN       0.065200
     54 H23         -4.4470     2.2020    -1.5500 hc         1 CKN       0.065200
     55 H24         -6.2390     2.5150     0.2300 hc         1 CKN       0.037700
     56 H25         -6.0160     1.7790     1.8340 hc         1 CKN       0.037700
     57 H26         -5.0620     3.1960     1.3690 hc         1 CKN       0.037700
     58 H27         -7.2420    -2.3030    -0.8000 h4         1 CKN       0.234000
     59 H28         -3.1850    -4.8490    -0.0790 h5         1 CKN       0.052100
     60 H29         -2.2830     0.2480     0.6170 hn         1 CKN       0.516000
     61 H30         -0.2870    -1.9960     1.0080 h1         1 CKN       0.088700
     62 H32          8.8430     0.4480     1.6400 hc         1 CKN       0.059367
     63 H33         10.0600     1.0100     0.4290 hc         1 CKN       0.059367
     64 H34          8.5910     1.9670     0.8880 hc         1 CKN       0.059367
@<TRIPOS>BOND
     1     1     2 1   
     2     1    16 1   
     3     1    19 1   
     4     1    32 1   
     5     2     3 2   
     6     2    15 1   
     7     3    21 1   
     8     3    25 1   
     9     4    17 1   
    10     4    33 1   
    11     4    34 1   
    12     5     6 1   
    13     5    27 1   
    14     5    35 1   
    15     5    36 1   
    16     6     7 1   
    17     6    37 1   
    18     6    38 1   
    19     7     8 1   
    20     7    28 1   
    21     7    39 1   
    22     8     9 1   
    23     8    40 1   
    24     8    41 1   
    25     9    27 1   
    26     9    42 1   
    27     9    43 1   
    28    10    11 1   
    29    10    28 1   
    30    10    44 1   
    31    10    45 1   
    32    11    29 1   
    33    11    46 1   
    34    11    47 1   
    35    12    13 1   
    36    12    29 1   
    37    12    48 1   
    38    12    49 1   
    39    13    28 1   
    40    13    50 1   
    41    13    51 1   
    42    14    29 1   
    43    14    30 1   
    44    14    31 2   
    45    15    20 2   
    46    15    52 1   
    47    16    17 1   
    48    16    53 1   
    49    16    54 1   
    50    17    18 2   
    51    19    55 1   
    52    19    56 1   
    53    19    57 1   
    54    20    21 1   
    55    20    58 1   
    56    21    22 1   
    57    22    23 2   
    58    23    24 1   
    59    23    59 1   
    60    24    25 2   
    61    25    26 1   
    62    26    27 1   
    63    26    60 1   
    64    27    61 1   
    65    30    62 1   
    66    30    63 1   
    67    30    64 1   
@<TRIPOS>SUBSTRUCTURE
     1 CKN         1 TEMP              0 ****  ****    0 ROOT
