@<TRIPOS>MOLECULE
CKN
   64    67     1     0     0
SMALL
abcg2


@<TRIPOS>ATOM
      1 C1          -4.4140     1.4280     0.4850 c3         1 CKN       0.015500
      2 C2          -4.9460     0.0530     0.2080 cc         1 CKN      -0.103200
      3 C3          -4.2050    -1.1250     0.1180 cd         1 CKN      -0.259000
      4 N6          -2.8740     4.2800    -0.9300 nt         1 CKN      -0.598000
      5 C7           0.2660    -0.0370     1.5240 c6         1 CKN      -0.094400
      6 C8           1.7660    -0.3080     1.5290 c6         1 CKN      -0.071400
      7 C9           2.4020    -0.1570     0.1430 c6         1 CKN       0.183500
      8 C10          1.6500    -1.0660    -0.8350 c6         1 CKN      -0.071400
      9 C11          0.1510    -0.7950    -0.8430 c6         1 CKN      -0.094400
     10 C12          4.5700     0.3610     1.1130 c6         1 CKN       0.142800
     11 C13          6.0400    -0.0190     1.1720 c6         1 CKN       0.096500
     12 C14          5.9230    -0.7500    -1.1070 c6         1 CKN       0.096500
     13 C15          4.4560    -0.3580    -1.1390 c6         1 CKN       0.142800
     14 C16          7.7210     0.7870    -0.4820 c          1 CKN       0.609100
     15 C19         -6.2800    -0.3040    -0.0430 cc         1 CKN      -0.245000
     16 C20         -3.7370     2.0210    -0.7670 c3         1 CKN      -0.167400
     17 C21         -2.7120     3.0670    -0.3930 c          1 CKN       0.603100
     18 O1          -1.7850     2.7860     0.3600 o          1 CKN      -0.635100
     19 C           -5.4890     2.3780     1.0030 c3         1 CKN      -0.087100
     20 C18         -6.3390    -1.6650    -0.2780 cd         1 CKN      -0.176100
     21 N           -5.0880    -2.1490    -0.1790 na         1 CKN       0.290900
     22 N1          -4.7490    -3.4450    -0.3410 nc         1 CKN      -0.311800
     23 C4          -3.4810    -3.6650    -0.2060 cd         1 CKN       0.137900
     24 N2          -2.4990    -2.7890     0.0630 nc         1 CKN      -0.316000
     25 C5          -2.8340    -1.5210     0.2370 cd         1 CKN       0.446900
     26 N3          -1.8790    -0.6350     0.5340 nu         1 CKN      -0.906100
     27 C6          -0.4600    -0.9470     0.5450 c6         1 CKN       0.234500
     28 N4           3.8350    -0.4730     0.1730 n3         1 CKN      -0.714600
     29 N5           6.6440     0.0490    -0.1400 n          1 CKN      -0.414800
     30 C17          8.3740     1.6070     0.6070 c3         1 CKN      -0.176100
     31 O            8.1650     0.7990    -1.6260 o          1 CKN      -0.610100
     32 H1          -3.6630     1.3460     1.2770 hc         1 CKN       0.065700
     33 H2          -2.2260     5.0240    -0.7260 hn         1 CKN       0.316000
     34 H3          -3.6520     4.4940    -1.5290 hn         1 CKN       0.316000
     35 H4          -0.1310    -0.1760     2.5320 hc         1 CKN       0.053450
     36 H5           0.0850     1.0070     1.2490 hc         1 CKN       0.053450
     37 H6           2.2190     0.3740     2.2490 hc         1 CKN       0.048950
     38 H7           1.9630    -1.3230     1.8920 hc         1 CKN       0.048950
     39 H8           2.2580     0.8900    -0.1870 h1         1 CKN       0.025700
     40 H9           2.0100    -0.9400    -1.8560 hc         1 CKN       0.048950
     41 H10          1.8400    -2.1090    -0.5580 hc         1 CKN       0.048950
     42 H11         -0.0410     0.2230    -1.2000 hc         1 CKN       0.053450
     43 H12         -0.3400    -1.4730    -1.5450 hc         1 CKN       0.053450
     44 H13          4.1760     0.2370     2.1200 h1         1 CKN       0.040450
     45 H14          4.4850     1.4330     0.8580 h1         1 CKN       0.040450
     46 H15          6.5460     0.6380     1.8740 h1         1 CKN       0.059200
     47 H16          6.1350    -1.0410     1.5550 h1         1 CKN       0.059200
     48 H17          6.0130    -1.8080    -0.8370 h1         1 CKN       0.059200
     49 H18          6.3570    -0.6190    -2.0940 h1         1 CKN       0.059200
     50 H19          4.3650     0.6650    -1.5410 h1         1 CKN       0.040450
     51 H20          3.9680    -1.0260    -1.8470 h1         1 CKN       0.040450
     52 H21         -7.1290     0.3610    -0.0530 ha         1 CKN       0.203000
     53 H22         -3.2010     1.2480    -1.3230 hc         1 CKN       0.065200
     54 H23         -4.5010     2.4090    -1.4440 hc         1 CKN       0.065200
     55 H24         -6.2870     2.5140     0.2720 hc         1 CKN       0.037700
     56 H25         -5.9340     2.0090     1.9270 hc         1 CKN       0.037700
     57 H26         -5.0650     3.3610     1.2120 hc         1 CKN       0.037700
     58 H27         -7.1700    -2.3130    -0.5010 h4         1 CKN       0.234000
     59 H28         -3.1810    -4.6980    -0.3330 h5         1 CKN       0.052100
     60 H29         -2.1090     0.3460     0.5890 hn         1 CKN       0.516000
     61 H30         -0.3520    -1.9830     0.8720 h1         1 CKN       0.088700
     62 H32          8.7240     0.9840     1.4310 hc         1 CKN       0.059367
     63 H33          9.2280     2.1320     0.1890 hc         1 CKN       0.059367
     64 H34          7.6890     2.3460     1.0240 hc         1 CKN       0.059367
@<TRIPOS>BOND
     1     1     2 1   
     2     1    16 1   
     3     1    19 1   
     4     1    32 1   
     5     2     3 2   
     6     2    15 1   
     7     3    21 1   
     8     3    25 1   
     9     4    17 1   
    10     4    33 1   
    11     4    34 1   
    12     5     6 1   
    13     5    27 1   
    14     5    35 1   
    15     5    36 1   
    16     6     7 1   
    17     6    37 1   
    18     6    38 1   
    19     7     8 1   
    20     7    28 1   
    21     7    39 1   
    22     8     9 1   
    23     8    40 1   
    24     8    41 1   
    25     9    27 1   
    26     9    42 1   
    27     9    43 1   
    28    10    11 1   
    29    10    28 1   
    30    10    44 1   
    31    10    45 1   
    32    11    29 1   
    33    11    46 1   
    34    11    47 1   
    35    12    13 1   
    36    12    29 1   
    37    12    48 1   
    38    12    49 1   
    39    13    28 1   
    40    13    50 1   
    41    13    51 1   
    42    14    29 1   
    43    14    30 1   
    44    14    31 2   
    45    15    20 2   
    46    15    52 1   
    47    16    17 1   
    48    16    53 1   
    49    16    54 1   
    50    17    18 2   
    51    19    55 1   
    52    19    56 1   
    53    19    57 1   
    54    20    21 1   
    55    20    58 1   
    56    21    22 1   
    57    22    23 2   
    58    23    24 1   
    59    23    59 1   
    60    24    25 2   
    61    25    26 1   
    62    26    27 1   
    63    26    60 1   
    64    27    61 1   
    65    30    62 1   
    66    30    63 1   
    67    30    64 1   
@<TRIPOS>SUBSTRUCTURE
     1 CKN         1 TEMP              0 ****  ****    0 ROOT
