@<TRIPOS>MOLECULE
CKO
   71    75     1     0     0
SMALL
abcg2


@<TRIPOS>ATOM
      1 C5           2.2490    -1.7610     0.8660 ca         1 CKO      -0.276800
      2 C6           2.3200    -2.9660     1.5360 ca         1 CKO       0.293300
      3 N1           3.2110    -3.3300     2.4400 nb         1 CKO      -0.205000
      4 C2           4.0920    -2.3710     2.6760 ca         1 CKO       0.184900
      5 N3           4.1480    -1.1600     2.1350 nb         1 CKO      -0.305000
      6 C4           3.2350    -0.8140     1.2220 ca         1 CKO       0.443900
      7 CAG          1.1020    -1.8440     0.0070 cc         1 CKO      -0.041400
      8 CAH          0.5840    -3.0850     0.2180 cd         1 CKO       0.091900
      9 CAJ         -0.5590    -3.7910    -0.3420 ca         1 CKO      -0.036800
     10 CAK          0.5800    -0.7810    -0.8650 ca         1 CKO      -0.007800
     11 CAM          4.2530     1.4290     0.9980 c3         1 CKO       0.293800
     12 CAN          4.4890     2.3180    -0.2010 ca         1 CKO      -0.098300
     13 CAO          3.8510     2.2180     2.2410 c3         1 CKO       0.145600
     14 CAQ         -1.0080    -3.5010    -1.6330 ca         1 CKO      -0.079500
     15 CAR         -2.1020    -4.1670    -2.1620 ca         1 CKO      -0.116000
     16 CAS         -2.7580    -5.1400    -1.4180 ca         1 CKO      -0.097000
     17 CAT         -2.3110    -5.4420    -0.1390 ca         1 CKO      -0.116000
     18 CAU         -1.2200    -4.7760     0.3980 ca         1 CKO      -0.079500
     19 CAV          1.3590    -0.2870    -1.9090 ca         1 CKO      -0.141000
     20 CAW          0.8570     0.7240    -2.7170 ca         1 CKO      -0.086000
     21 CAX         -0.4050     1.2400    -2.4900 ca         1 CKO      -0.168000
     22 CAY         -1.1930     0.7510    -1.4440 ca         1 CKO      -0.015000
     23 CAZ         -0.6920    -0.2630    -0.6300 ca         1 CKO      -0.111000
     24 CBB         -3.2910     1.2810    -0.2170 c          1 CKO       0.613300
     25 CBC         -4.5560     2.0180    -0.4380 ce         1 CKO      -0.318200
     26 CBE         -5.4500     2.1700     0.5360 c2         1 CKO      -0.111200
     27 CBF         -6.7240     2.9370     0.3820 c3         1 CKO       0.183000
     28 CBH         -7.8160     2.3700     2.4530 c3         1 CKO       0.147100
     29 CBI         -9.1060     2.7860     0.4950 c3         1 CKO       0.147100
     30 CBJ          3.4410     2.8720    -0.9370 ca         1 CKO      -0.092000
     31 CBK          3.7000     3.6850    -2.0310 ca         1 CKO      -0.115000
     32 CBL          5.0080     3.9750    -2.3970 ca         1 CKO      -0.104000
     33 CBM          6.0570     3.4360    -1.6650 ca         1 CKO      -0.115000
     34 CBN          5.7950     2.6120    -0.5790 ca         1 CKO      -0.092000
     35 NAL          3.2820     0.4030     0.6690 nu         1 CKO      -0.907100
     36 NBA         -2.4660     1.3050    -1.3000 ns         1 CKO      -0.147000
     37 NBG         -7.8540     2.2720     1.0080 n3         1 CKO      -0.706600
     38 OAI          1.3220    -3.7670     1.1490 os         1 CKO      -0.271400
     39 OAP          2.6240     2.8580     2.0080 oh         1 CKO      -0.660000
     40 OBD         -3.0210     0.7130     0.8290 o          1 CKO      -0.578100
     41 H1           4.8630    -2.5960     3.4050 h5         1 CKO       0.048100
     42 H2           5.1940     0.9320     1.2420 h1         1 CKO       0.085700
     43 H3           3.7920     1.5210     3.0860 h1         1 CKO       0.034700
     44 H4           4.6570     2.9280     2.4630 h1         1 CKO       0.034700
     45 H5          -0.4950    -2.7650    -2.2360 ha         1 CKO       0.125000
     46 H6          -2.4340    -3.9330    -3.1650 ha         1 CKO       0.114500
     47 H7          -3.6110    -5.6610    -1.8340 ha         1 CKO       0.113000
     48 H8          -2.8150    -6.1980     0.4490 ha         1 CKO       0.114500
     49 H9          -0.8950    -5.0160     1.4020 ha         1 CKO       0.125000
     50 H10          2.3410    -0.7010    -2.1020 ha         1 CKO       0.126000
     51 H11          1.4550     1.1140    -3.5290 ha         1 CKO       0.117000
     52 H12         -0.7870     2.0310    -3.1240 ha         1 CKO       0.110000
     53 H13         -1.2780    -0.6630     0.1800 ha         1 CKO       0.156000
     54 H14         -4.7380     2.4390    -1.4220 ha         1 CKO       0.175000
     55 H15         -5.2350     1.7390     1.5090 ha         1 CKO       0.200000
     56 H16         -6.5730     3.9550     0.7860 h1         1 CKO       0.043200
     57 H17         -6.9350     3.0610    -0.6830 h1         1 CKO       0.043200
     58 H18         -7.8560     3.4100     2.8130 h1         1 CKO       0.033367
     59 H19         -8.6650     1.8350     2.8800 h1         1 CKO       0.033367
     60 H20         -6.9120     1.9130     2.8580 h1         1 CKO       0.033367
     61 H21         -9.1550     2.6510    -0.5870 h1         1 CKO       0.033367
     62 H22         -9.9390     2.2380     0.9370 h1         1 CKO       0.033367
     63 H23         -9.2590     3.8560     0.7070 h1         1 CKO       0.033367
     64 H24          2.4090     2.6830    -0.6690 ha         1 CKO       0.118500
     65 H25          2.8750     4.0990    -2.5960 ha         1 CKO       0.112500
     66 H26          5.2070     4.6100    -3.2510 ha         1 CKO       0.112000
     67 H27          7.0810     3.6470    -1.9450 ha         1 CKO       0.112500
     68 H28          6.6200     2.1850    -0.0210 ha         1 CKO       0.118500
     69 H29          2.5540     0.6350     0.0140 hn         1 CKO       0.515000
     70 H30         -2.7750     1.8640    -2.0810 hn         1 CKO       0.150000
     71 H32          2.3890     3.3550     2.7970 ho         1 CKO       0.446000
@<TRIPOS>BOND
     1     1     2 ar  
     2     1     6 ar  
     3     1     7 1   
     4     2     3 ar  
     5     2    38 1   
     6     3     4 ar  
     7     4     5 ar  
     8     4    41 1   
     9     5     6 ar  
    10     6    35 1   
    11     7     8 2   
    12     7    10 1   
    13     8     9 1   
    14     8    38 1   
    15     9    14 ar  
    16     9    18 ar  
    17    10    19 ar  
    18    10    23 ar  
    19    11    12 1   
    20    11    13 1   
    21    11    35 1   
    22    11    42 1   
    23    12    30 ar  
    24    12    34 ar  
    25    13    39 1   
    26    13    43 1   
    27    13    44 1   
    28    14    15 ar  
    29    14    45 1   
    30    15    16 ar  
    31    15    46 1   
    32    16    17 ar  
    33    16    47 1   
    34    17    18 ar  
    35    17    48 1   
    36    18    49 1   
    37    19    20 ar  
    38    19    50 1   
    39    20    21 ar  
    40    20    51 1   
    41    21    22 ar  
    42    21    52 1   
    43    22    23 ar  
    44    22    36 1   
    45    23    53 1   
    46    24    25 1   
    47    24    36 1   
    48    24    40 2   
    49    25    26 2   
    50    25    54 1   
    51    26    27 1   
    52    26    55 1   
    53    27    37 1   
    54    27    56 1   
    55    27    57 1   
    56    28    37 1   
    57    28    58 1   
    58    28    59 1   
    59    28    60 1   
    60    29    37 1   
    61    29    61 1   
    62    29    62 1   
    63    29    63 1   
    64    30    31 ar  
    65    30    64 1   
    66    31    32 ar  
    67    31    65 1   
    68    32    33 ar  
    69    32    66 1   
    70    33    34 ar  
    71    33    67 1   
    72    34    68 1   
    73    35    69 1   
    74    36    70 1   
    75    39    71 1   
@<TRIPOS>SUBSTRUCTURE
     1 CKO         1 TEMP              0 ****  ****    0 ROOT
