@<TRIPOS>MOLECULE
CKO
   71    75     1     0     0
SMALL
No Charge or Current Charge


@<TRIPOS>ATOM
      1 C5           2.6350    -2.0060     0.8560 ca         1 CKO      -0.276800
      2 C6           2.7770    -3.1790     1.5520 ca         1 CKO       0.293300
      3 N1           3.8530    -3.4700     2.3000 nb         1 CKO      -0.205000
      4 C2           4.8000    -2.4980     2.3120 ca         1 CKO       0.184900
      5 N3           4.7520    -1.3010     1.6680 nb         1 CKO      -0.305000
      6 C4           3.6480    -1.0560     0.9320 ca         1 CKO       0.443900
      7 CAG          1.3510    -2.0350     0.1920 cc         1 CKO      -0.041400
      8 CAH          0.7810    -3.2550     0.5540 cd         1 CKO       0.091900
      9 CAJ         -0.4600    -3.9590     0.1460 ca         1 CKO      -0.036800
     10 CAK          0.7310    -1.0080    -0.6350 ca         1 CKO      -0.007800
     11 CAM          4.1620     1.4300     0.6380 c3         1 CKO       0.293800
     12 CAN          3.8820     2.4520    -0.4700 ca         1 CKO      -0.098300
     13 CAO          3.7290     1.9350     2.0590 c3         1 CKO       0.145600
     14 CAQ         -1.2670    -3.5060    -0.9240 ca         1 CKO      -0.079500
     15 CAR         -2.4380    -4.1960    -1.2850 ca         1 CKO      -0.116000
     16 CAS         -2.8200    -5.3520    -0.5880 ca         1 CKO      -0.097000
     17 CAT         -2.0250    -5.8210     0.4680 ca         1 CKO      -0.116000
     18 CAU         -0.8540    -5.1330     0.8290 ca         1 CKO      -0.079500
     19 CAV          1.3190    -0.6420    -1.8580 ca         1 CKO      -0.141000
     20 CAW          0.7470     0.3740    -2.6380 ca         1 CKO      -0.086000
     21 CAX         -0.4140     1.0280    -2.1960 ca         1 CKO      -0.168000
     22 CAY         -1.0140     0.6770    -0.9730 ca         1 CKO      -0.015000
     23 CAZ         -0.4280    -0.3440    -0.1910 ca         1 CKO      -0.111000
     24 CBB         -3.0580     1.2390     0.4800 c          1 CKO       0.613300
     25 CBC         -4.1660     2.2370     0.4850 ce         1 CKO      -0.318200
     26 CBE         -5.2290     2.1910     1.3250 c2         1 CKO      -0.111200
     27 CBF         -6.3870     3.1700     1.3420 c3         1 CKO       0.183000
     28 CBH         -7.6640     2.0180    -0.4410 c3         1 CKO       0.147100
     29 CBI         -8.0190     4.4130    -0.0190 c3         1 CKO       0.147100
     30 CBJ          2.5610     2.7690    -0.8590 ca         1 CKO      -0.092000
     31 CBK          2.3220     3.6950    -1.8890 ca         1 CKO      -0.115000
     32 CBL          3.3990     4.3150    -2.5420 ca         1 CKO      -0.104000
     33 CBM          4.7170     4.0070    -2.1630 ca         1 CKO      -0.115000
     34 CBN          4.9570     3.0790    -1.1350 ca         1 CKO      -0.092000
     35 NAL          3.5280     0.1510     0.2740 nu         1 CKO      -0.907100
     36 NBA         -2.1830     1.3880    -0.5870 ns         1 CKO      -0.147000
     37 NBG         -7.0590     3.2880     0.0250 n3         1 CKO      -0.706600
     38 OAI          1.6590    -3.9380     1.3700 os         1 CKO      -0.271400
     39 OAP          2.2960     2.0200     2.2240 oh         1 CKO      -0.660000
     40 OBD         -2.9760     0.3620     1.3310 o          1 CKO      -0.578100
     41 H1           5.6900    -2.6960     2.9060 h5         1 CKO       0.048100
     42 H2           5.2500     1.2790     0.6810 h1         1 CKO       0.085700
     43 H3           4.1460     1.2510     2.8100 h1         1 CKO       0.034700
     44 H4           4.1880     2.9180     2.2310 h1         1 CKO       0.034700
     45 H5          -0.9910    -2.6340    -1.5040 ha         1 CKO       0.125000
     46 H6          -3.0460    -3.8350    -2.1110 ha         1 CKO       0.114500
     47 H7          -3.7260    -5.8850    -0.8690 ha         1 CKO       0.113000
     48 H8          -2.3160    -6.7190     1.0090 ha         1 CKO       0.114500
     49 H9          -0.2590    -5.5150     1.6550 ha         1 CKO       0.125000
     50 H10          2.2200    -1.1470    -2.2020 ha         1 CKO       0.126000
     51 H11          1.2050     0.6560    -3.5840 ha         1 CKO       0.117000
     52 H12         -0.8470     1.8150    -2.8090 ha         1 CKO       0.110000
     53 H13         -0.8480    -0.6320     0.7660 ha         1 CKO       0.156000
     54 H14         -4.1110     3.0160    -0.2740 ha         1 CKO       0.175000
     55 H15         -5.3130     1.4050     2.0780 ha         1 CKO       0.200000
     56 H16         -7.1110     2.8610     2.1090 h1         1 CKO       0.043200
     57 H17         -5.9970     4.1510     1.6490 h1         1 CKO       0.043200
     58 H18         -8.4540     1.6850     0.2460 h1         1 CKO       0.033367
     59 H19         -8.1090     2.1430    -1.4380 h1         1 CKO       0.033367
     60 H20         -6.9110     1.2220    -0.5120 h1         1 CKO       0.033367
     61 H21         -7.5240     5.3570     0.2470 h1         1 CKO       0.033367
     62 H22         -8.4400     4.5260    -1.0270 h1         1 CKO       0.033367
     63 H23         -8.8470     4.2500     0.6840 h1         1 CKO       0.033367
     64 H24          1.7140     2.2970    -0.3670 ha         1 CKO       0.118500
     65 H25          1.3010     3.9290    -2.1820 ha         1 CKO       0.112500
     66 H26          3.2140     5.0320    -3.3390 ha         1 CKO       0.112000
     67 H27          5.5520     4.4860    -2.6690 ha         1 CKO       0.112500
     68 H28          5.9830     2.8480    -0.8560 ha         1 CKO       0.118500
     69 H29          2.6360     0.2420    -0.2050 hn         1 CKO       0.515000
     70 H30         -2.4200     2.1490    -1.2100 hn         1 CKO       0.150000
     71 H32          2.1300     2.3010     3.1510 ho         1 CKO       0.446000
@<TRIPOS>BOND
     1     1     2 ar  
     2     1     6 ar  
     3     1     7 1   
     4     2     3 ar  
     5     2    38 1   
     6     3     4 ar  
     7     4     5 ar  
     8     4    41 1   
     9     5     6 ar  
    10     6    35 1   
    11     7     8 2   
    12     7    10 1   
    13     8     9 1   
    14     8    38 1   
    15     9    14 ar  
    16     9    18 ar  
    17    10    19 ar  
    18    10    23 ar  
    19    11    12 1   
    20    11    13 1   
    21    11    35 1   
    22    11    42 1   
    23    12    30 ar  
    24    12    34 ar  
    25    13    39 1   
    26    13    43 1   
    27    13    44 1   
    28    14    15 ar  
    29    14    45 1   
    30    15    16 ar  
    31    15    46 1   
    32    16    17 ar  
    33    16    47 1   
    34    17    18 ar  
    35    17    48 1   
    36    18    49 1   
    37    19    20 ar  
    38    19    50 1   
    39    20    21 ar  
    40    20    51 1   
    41    21    22 ar  
    42    21    52 1   
    43    22    23 ar  
    44    22    36 1   
    45    23    53 1   
    46    24    25 1   
    47    24    36 1   
    48    24    40 2   
    49    25    26 2   
    50    25    54 1   
    51    26    27 1   
    52    26    55 1   
    53    27    37 1   
    54    27    56 1   
    55    27    57 1   
    56    28    37 1   
    57    28    58 1   
    58    28    59 1   
    59    28    60 1   
    60    29    37 1   
    61    29    61 1   
    62    29    62 1   
    63    29    63 1   
    64    30    31 ar  
    65    30    64 1   
    66    31    32 ar  
    67    31    65 1   
    68    32    33 ar  
    69    32    66 1   
    70    33    34 ar  
    71    33    67 1   
    72    34    68 1   
    73    35    69 1   
    74    36    70 1   
    75    39    71 1   
@<TRIPOS>SUBSTRUCTURE
     1 CKO         1 TEMP              0 ****  ****    0 ROOT
