@<TRIPOS>MOLECULE
CKQ
   51    54     1     0     0
SMALL
bcc


@<TRIPOS>ATOM
      1 O5          -4.8030    -0.8430    -0.4770 os         1 CKQ      -0.367600
      2 C5          -6.0370    -1.2460     0.0860 c6         1 CKQ       0.147100
      3 C4          -6.9810    -0.0450     0.1660 c6         1 CKQ       0.114100
      4 C3          -6.3190     1.0760     0.9610 c6         1 CKQ       0.074100
      5 C2          -4.9520     1.4080     0.3730 c6         1 CKQ       0.097100
      6 C1          -4.1290     0.1230     0.2910 c6         1 CKQ       0.133800
      7 C20         -2.8060     0.3690    -0.3470 cc         1 CKQ       0.377800
      8 O2          -4.2300     2.3110     1.1720 oh         1 CKQ      -0.591800
      9 O3          -7.1780     2.1950     0.9340 oh         1 CKQ      -0.606800
     10 O4          -8.1780    -0.4620     0.7730 oh         1 CKQ      -0.598800
     11 C6          -6.6000    -2.3510    -0.7800 c3         1 CKQ       0.149400
     12 O6          -5.7220    -3.4500    -0.7410 oh         1 CKQ      -0.585800
     13 N5          -1.6190     0.0890     0.2300 na         1 CKQ      -0.431700
     14 C19         -0.6750     0.4470    -0.6730 cc         1 CKQ       0.472000
     15 N3          -1.2700     0.9190    -1.7400 nd         1 CKQ      -0.372000
     16 N2          -2.6030     0.8710    -1.5330 nd         1 CKQ      -0.346000
     17 C21          0.7640     0.3250    -0.4820 ca         1 CKQ      -0.167500
     18 C11          1.3150     0.0160     0.7600 ca         1 CKQ      -0.101000
     19 C10          2.6870    -0.0920     0.9150 ca         1 CKQ      -0.137500
     20 C9           3.5520     0.1050    -0.1620 cp         1 CKQ       0.035000
     21 C8           2.9910     0.4170    -1.4030 ca         1 CKQ      -0.137500
     22 C7           1.6230     0.5260    -1.5630 ca         1 CKQ      -0.101000
     23 C12          5.0120    -0.0120     0.0040 cp         1 CKQ      -0.100000
     24 C17          5.6390     0.4150     1.1760 ca         1 CKQ      -0.137500
     25 C16          7.0130     0.3110     1.3240 ca         1 CKQ      -0.111500
     26 C15          7.8080    -0.2260     0.3150 ca         1 CKQ      -0.113600
     27 C14          7.1820    -0.6550    -0.8530 ca         1 CKQ      -0.111500
     28 C13          5.8090    -0.5480    -1.0090 ca         1 CKQ      -0.137500
     29 C18          9.3170    -0.3400     0.4850 c          1 CKQ       0.921200
     30 O19          9.7910     0.0810     1.5580 o          1 CKQ      -0.821800
     31 O20          9.9470    -0.8460    -0.4630 o          1 CKQ      -0.821800
     32 H1          -5.8730    -1.6340     1.1050 h1         1 CKQ       0.056700
     33 H2          -7.1650     0.3160    -0.8600 h1         1 CKQ       0.060700
     34 H3          -6.1740     0.7210     1.9920 h1         1 CKQ       0.050700
     35 H4          -5.0860     1.7950    -0.6470 h1         1 CKQ       0.081700
     36 H5          -3.9580    -0.2470     1.3150 h1         1 CKQ       0.045700
     37 H6          -4.5650     3.1990     1.0150 ho         1 CKQ       0.415000
     38 H7          -7.1280     2.6510     1.7780 ho         1 CKQ       0.413000
     39 H8          -8.7520     0.3080     0.8510 ho         1 CKQ       0.420000
     40 H9          -7.5940    -2.6110    -0.4020 h1         1 CKQ       0.035700
     41 H10         -6.7330    -1.9690    -1.8020 h1         1 CKQ       0.035700
     42 H11         -6.1070    -4.1570    -1.2660 ho         1 CKQ       0.404000
     43 H12         -1.4800    -0.3350     1.1350 hn         1 CKQ       0.311700
     44 H13          0.6850    -0.1450     1.6260 ha         1 CKQ       0.128500
     45 H14          3.0830    -0.3540     1.8880 ha         1 CKQ       0.140000
     46 H15          3.6340     0.5940    -2.2560 ha         1 CKQ       0.140000
     47 H16          1.2150     0.7740    -2.5340 ha         1 CKQ       0.128500
     48 H17          5.0520     0.8560     1.9730 ha         1 CKQ       0.107000
     49 H18          7.4760     0.6600     2.2370 ha         1 CKQ       0.148000
     50 H19          7.7740    -1.0840    -1.6500 ha         1 CKQ       0.148000
     51 H20          5.3500    -0.9090    -1.9220 ha         1 CKQ       0.107000
@<TRIPOS>BOND
     1     1     2 1   
     2     1     6 1   
     3     2     3 1   
     4     2    11 1   
     5     2    32 1   
     6     3     4 1   
     7     3    10 1   
     8     3    33 1   
     9     4     5 1   
    10     4     9 1   
    11     4    34 1   
    12     5     6 1   
    13     5     8 1   
    14     5    35 1   
    15     6     7 1   
    16     6    36 1   
    17     7    13 1   
    18     7    16 2   
    19     8    37 1   
    20     9    38 1   
    21    10    39 1   
    22    11    12 1   
    23    11    40 1   
    24    11    41 1   
    25    12    42 1   
    26    13    14 1   
    27    13    43 1   
    28    14    15 2   
    29    14    17 1   
    30    15    16 1   
    31    17    18 ar  
    32    17    22 ar  
    33    18    19 ar  
    34    18    44 1   
    35    19    20 ar  
    36    19    45 1   
    37    20    21 ar  
    38    20    23 1   
    39    21    22 ar  
    40    21    46 1   
    41    22    47 1   
    42    23    24 ar  
    43    23    28 ar  
    44    24    25 ar  
    45    24    48 1   
    46    25    26 ar  
    47    25    49 1   
    48    26    27 ar  
    49    26    29 1   
    50    27    28 ar  
    51    27    50 1   
    52    28    51 1   
    53    29    30 1   
    54    29    31 1   
@<TRIPOS>SUBSTRUCTURE
     1 CKQ         1 TEMP              0 ****  ****    0 ROOT
