@<TRIPOS>MOLECULE
CKQ
   51    54     1     0     0
SMALL
No Charge or Current Charge


@<TRIPOS>ATOM
      1 O5          -4.3690    -0.4570     0.8060 os         1 CKQ      -0.414000
      2 C5          -5.6780    -1.0450     1.0250 c6         1 CKQ       0.170300
      3 C4          -6.5710    -0.8030    -0.2290 c6         1 CKQ       0.137300
      4 C3          -6.6500     0.7240    -0.5100 c6         1 CKQ       0.097300
      5 C2          -5.2250     1.3330    -0.6630 c6         1 CKQ       0.120300
      6 C1          -4.3700     0.9840     0.6030 c6         1 CKQ       0.157000
      7 C20         -2.9490     1.5090     0.4560 cc         1 CKQ       0.377800
      8 O2          -5.3470     2.7590    -0.8820 oh         1 CKQ      -0.714000
      9 O3          -7.4360     0.9860    -1.6850 oh         1 CKQ      -0.669000
     10 O4          -7.9030    -1.3220    -0.0660 oh         1 CKQ      -0.721000
     11 C6          -5.4860    -2.5660     1.3380 c3         1 CKQ       0.172600
     12 O6          -4.5990    -2.8130     2.4490 oh         1 CKQ      -0.708000
     13 N5          -1.8310     0.7200     0.3960 na         1 CKQ      -0.482000
     14 C19         -0.7570     1.5500     0.2550 cc         1 CKQ       0.472000
     15 N3          -1.1950     2.7980     0.2280 nd         1 CKQ      -0.372000
     16 N2          -2.5640     2.7730     0.3550 nd         1 CKQ      -0.346000
     17 C21          0.6420     1.1120     0.1520 ca         1 CKQ      -0.167500
     18 C11          0.9820    -0.2580     0.1920 ca         1 CKQ      -0.083000
     19 C10          2.3240    -0.6660     0.0920 ca         1 CKQ      -0.119500
     20 C9           3.3720     0.2750    -0.0510 cp         1 CKQ       0.035000
     21 C8           3.0190     1.6460    -0.0900 ca         1 CKQ      -0.119500
     22 C7           1.6790     2.0580     0.0100 ca         1 CKQ      -0.083000
     23 C12          4.8010    -0.1630    -0.1580 cp         1 CKQ      -0.100000
     24 C17          5.2760    -1.2990     0.5430 ca         1 CKQ      -0.119500
     25 C16          6.6160    -1.7110     0.4450 ca         1 CKQ      -0.093500
     26 C15          7.5350    -1.0020    -0.3610 ca         1 CKQ      -0.113600
     27 C14          7.0690     0.1330    -1.0640 ca         1 CKQ      -0.093500
     28 C13          5.7280     0.5430    -0.9630 ca         1 CKQ      -0.119500
     29 C18          8.9870    -1.4470    -0.4690 c          1 CKQ       0.710600
     30 O19          9.3450    -2.4360     0.1560 o          1 CKQ      -0.716500
     31 O20          9.7470    -0.8010    -1.1780 o          1 CKQ      -0.716500
     32 H1          -6.1380    -0.5690     1.9030 h1         1 CKQ       0.056700
     33 H2          -6.0860    -1.2870    -1.0910 h1         1 CKQ       0.060700
     34 H3          -7.1240     1.2040     0.3610 h1         1 CKQ       0.050700
     35 H4          -4.7400     0.8610    -1.5320 h1         1 CKQ       0.081700
     36 H5          -4.8320     1.4500     1.4850 h1         1 CKQ       0.045700
     37 H6          -4.4380     3.1460    -0.8460 ho         1 CKQ       0.514000
     38 H7          -7.1970     1.9070    -1.9450 ho         1 CKQ       0.452000
     39 H8          -8.4440    -0.8190    -0.7240 ho         1 CKQ       0.519000
     40 H9          -6.4730    -3.0010     1.5450 h1         1 CKQ       0.035700
     41 H10         -5.1000    -3.0530     0.4330 h1         1 CKQ       0.035700
     42 H11         -4.5100    -3.7920     2.5330 ho         1 CKQ       0.503000
     43 H12         -1.8130    -0.2860     0.4540 hn         1 CKQ       0.362000
     44 H13          0.2130    -1.0200     0.2970 ha         1 CKQ       0.110500
     45 H14          2.5510    -1.7280     0.1130 ha         1 CKQ       0.122000
     46 H15          3.7940     2.4010    -0.1860 ha         1 CKQ       0.122000
     47 H16          1.4540     3.1230    -0.0210 ha         1 CKQ       0.110500
     48 H17          4.6020    -1.8620     1.1840 ha         1 CKQ       0.089000
     49 H18          6.9390    -2.5870     1.0040 ha         1 CKQ       0.130000
     50 H19          7.7470     0.7020    -1.6970 ha         1 CKQ       0.130000
     51 H20          5.4050     1.4120    -1.5290 ha         1 CKQ       0.089000
@<TRIPOS>BOND
     1     1     2 1   
     2     1     6 1   
     3     2     3 1   
     4     2    11 1   
     5     2    32 1   
     6     3     4 1   
     7     3    10 1   
     8     3    33 1   
     9     4     5 1   
    10     4     9 1   
    11     4    34 1   
    12     5     6 1   
    13     5     8 1   
    14     5    35 1   
    15     6     7 1   
    16     6    36 1   
    17     7    13 1   
    18     7    16 2   
    19     8    37 1   
    20     9    38 1   
    21    10    39 1   
    22    11    12 1   
    23    11    40 1   
    24    11    41 1   
    25    12    42 1   
    26    13    14 1   
    27    13    43 1   
    28    14    15 2   
    29    14    17 1   
    30    15    16 1   
    31    17    18 ar  
    32    17    22 ar  
    33    18    19 ar  
    34    18    44 1   
    35    19    20 ar  
    36    19    45 1   
    37    20    21 ar  
    38    20    23 1   
    39    21    22 ar  
    40    21    46 1   
    41    22    47 1   
    42    23    24 ar  
    43    23    28 ar  
    44    24    25 ar  
    45    24    48 1   
    46    25    26 ar  
    47    25    49 1   
    48    26    27 ar  
    49    26    29 1   
    50    27    28 ar  
    51    27    50 1   
    52    28    51 1   
    53    29    30 1   
    54    29    31 1   
@<TRIPOS>SUBSTRUCTURE
     1 CKQ         1 TEMP              0 ****  ****    0 ROOT
