@<TRIPOS>MOLECULE
CKR
   43    46     1     0     0
SMALL
abcg2


@<TRIPOS>ATOM
      1 N2          -0.4610    -1.7360     0.5780 nc         1 CKR      -0.638100
      2 C3          -1.6330    -1.0520     0.3450 ca         1 CKR       0.069400
      3 C4          -2.9390    -1.3920     0.6140 ca         1 CKR       0.015000
      4 C5          -3.9490    -0.4860     0.2650 ca         1 CKR      -0.239600
      5 C6          -5.3360    -0.8200     0.5370 c          1 CKR       0.593600
      6 O1          -5.7310    -1.8500     1.0600 o          1 CKR      -0.542000
      7 N7          -6.2310     0.1520     0.1480 ns         1 CKR      -0.454400
      8 C8          -5.8730     1.3300    -0.4510 cc         1 CKR       0.710800
      9 N22         -6.8820     2.1850    -0.7250 nv         1 CKR      -1.036200
     10 N9          -4.6460     1.6460    -0.7070 nd         1 CKR      -0.709100
     11 C10         -3.6650     0.7550    -0.3520 ca         1 CKR       0.228400
     12 C11         -2.3330     1.1000    -0.6240 ca         1 CKR      -0.136000
     13 C12         -1.3590     0.1950    -0.2710 ca         1 CKR      -0.032200
     14 N13          0.0050     0.2240    -0.3910 na         1 CKR      -0.356600
     15 C1           0.4840    -0.9510     0.1240 cd         1 CKR       0.654700
     16 N14          1.7970    -1.2520     0.1200 nu         1 CKR      -0.891400
     17 C2           2.8340    -0.2520    -0.0440 c3         1 CKR       0.216800
     18 C7           4.1850    -0.9480    -0.1440 c3         1 CKR       0.157800
     19 H4          -3.1900    -2.3340     1.0840 ha         1 CKR       0.148000
     20 HN7         -7.2080    -0.0350     0.3280 hn         1 CKR       0.323500
     21 HN22        -7.8190     1.8310    -0.8230 hn         1 CKR       0.488500
     22 HN2A        -6.6550     2.9600    -1.3260 hn         1 CKR       0.488500
     23 H11         -2.1020     2.0460    -1.0950 ha         1 CKR       0.133000
     24 HN13         0.5450     0.9680    -0.8040 hn         1 CKR       0.358000
     25 HN14         2.0310    -2.0470     0.6940 hn         1 CKR       0.502000
     26 H2           2.6710     0.3030    -0.9700 h1         1 CKR       0.044700
     27 H2A          2.8200     0.4710     0.7790 h1         1 CKR       0.044700
     28 H7           4.3100    -1.6420     0.7050 h1         1 CKR       0.043200
     29 H7A          4.1860    -1.5590    -1.0500 h1         1 CKR       0.043200
     30 N71          5.2740     0.0010    -0.2250 n3         1 CKR      -0.718600
     31 C121         6.4640    -0.5910    -0.8140 c6         1 CKR       0.124800
     32 C13          7.5640     0.4470    -0.9230 c6         1 CKR       0.153600
     33 O2           7.8750     1.0080     0.3330 os         1 CKR      -0.447000
     34 C14          6.7300     1.5840     0.9200 c6         1 CKR       0.153600
     35 C15          5.6100     0.5730     1.0690 c6         1 CKR       0.124800
     36 H13          6.8260    -1.4520    -0.2260 h1         1 CKR       0.043200
     37 H14          6.2290    -0.9590    -1.8150 h1         1 CKR       0.043200
     38 H15          8.4740    -0.0110    -1.3120 h1         1 CKR       0.052450
     39 H16          7.2530     1.2320    -1.6260 h1         1 CKR       0.052450
     40 H17          7.0210     1.9670     1.8990 h1         1 CKR       0.052450
     41 H18          6.3740     2.4330     0.3180 h1         1 CKR       0.052450
     42 H19          4.7430     1.0820     1.4960 h1         1 CKR       0.043200
     43 H20          5.9070    -0.2110     1.7870 h1         1 CKR       0.043200
@<TRIPOS>BOND
     1     1     2 1   
     2     1    15 2   
     3     2     3 ar  
     4     2    13 ar  
     5     3     4 ar  
     6     3    19 1   
     7     4     5 1   
     8     4    11 ar  
     9     5     6 2   
    10     5     7 1   
    11     7     8 1   
    12     7    20 1   
    13     8     9 1   
    14     8    10 2   
    15     9    21 1   
    16     9    22 1   
    17    10    11 1   
    18    11    12 ar  
    19    12    13 ar  
    20    12    23 1   
    21    13    14 1   
    22    14    15 1   
    23    14    24 1   
    24    15    16 1   
    25    16    17 1   
    26    16    25 1   
    27    17    18 1   
    28    17    26 1   
    29    17    27 1   
    30    18    28 1   
    31    18    29 1   
    32    18    30 1   
    33    30    31 1   
    34    30    35 1   
    35    31    32 1   
    36    31    36 1   
    37    31    37 1   
    38    32    33 1   
    39    32    38 1   
    40    32    39 1   
    41    33    34 1   
    42    34    35 1   
    43    34    40 1   
    44    34    41 1   
    45    35    42 1   
    46    35    43 1   
@<TRIPOS>SUBSTRUCTURE
     1 CKR         1 TEMP              0 ****  ****    0 ROOT
