@<TRIPOS>MOLECULE
CKR
   43    46     1     0     0
SMALL
No Charge or Current Charge


@<TRIPOS>ATOM
      1 N2          -0.5160    -1.7730     0.1540 nc         1 CKR      -0.638100
      2 C3          -1.6920    -1.0420     0.0790 ca         1 CKR       0.069400
      3 C4          -3.0120    -1.5110     0.1460 ca         1 CKR       0.015000
      4 C5          -4.0710    -0.5740     0.0460 ca         1 CKR      -0.239600
      5 C6          -5.4830    -1.0150     0.1140 c          1 CKR       0.593600
      6 O1          -5.8320    -2.1760     0.2620 o          1 CKR      -0.542000
      7 N7          -6.3720    -0.0090    -0.0020 ns         1 CKR      -0.454400
      8 C8          -6.0200     1.2800    -0.1570 cc         1 CKR       0.710800
      9 N22         -7.0170     2.1400    -0.2560 nv         1 CKR      -1.036200
     10 N9          -4.8130     1.7810    -0.2250 nd         1 CKR      -0.709100
     11 C10         -3.8050     0.8080    -0.1190 ca         1 CKR       0.228400
     12 C11         -2.4660     1.2450    -0.1830 ca         1 CKR      -0.136000
     13 C12         -1.4440     0.2930    -0.0810 ca         1 CKR      -0.032200
     14 N13         -0.0910     0.4790    -0.1150 na         1 CKR      -0.356600
     15 C1           0.3950    -0.8110     0.0320 cd         1 CKR       0.654700
     16 N14          1.7020    -1.1240     0.0570 nu         1 CKR      -0.891400
     17 C2           2.8420    -0.2010    -0.0940 c3         1 CKR       0.216800
     18 C7           4.2100    -0.9410    -0.0400 c3         1 CKR       0.157800
     19 H4          -3.2060    -2.5730     0.2740 ha         1 CKR       0.148000
     20 HN7         -7.3450    -0.2540     0.0610 hn         1 CKR       0.323500
     21 HN22        -7.8750     1.7990    -0.6730 hn         1 CKR       0.488500
     22 HN2A        -6.7310     3.0650    -0.5520 hn         1 CKR       0.488500
     23 H11         -2.2340     2.2990    -0.3090 ha         1 CKR       0.133000
     24 HN13         0.4430     1.3270    -0.2190 hn         1 CKR       0.358000
     25 HN14         1.8720    -2.1220     0.1550 hn         1 CKR       0.502000
     26 H2           2.7660     0.3250    -1.0550 h1         1 CKR       0.044700
     27 H2A          2.8070     0.5520     0.7040 h1         1 CKR       0.044700
     28 H7           4.2960    -1.4380     0.9360 h1         1 CKR       0.043200
     29 H7A          4.1820    -1.7340    -0.7990 h1         1 CKR       0.043200
     30 N71          5.4110    -0.0910    -0.2760 n3         1 CKR      -0.718600
     31 C121         6.6630    -0.9010    -0.4140 c6         1 CKR       0.124800
     32 C13          7.9080    -0.0050    -0.6850 c6         1 CKR       0.153600
     33 O2           8.0380     0.9990     0.3500 os         1 CKR      -0.447000
     34 C14          6.8700     1.8480     0.4510 c6         1 CKR       0.153600
     35 C15          5.6000     0.9940     0.7430 c6         1 CKR       0.124800
     36 H13          6.8430    -1.4840     0.5010 h1         1 CKR       0.043200
     37 H14          6.5630    -1.6210    -1.2390 h1         1 CKR       0.043200
     38 H15          8.8170    -0.6220    -0.7040 h1         1 CKR       0.052450
     39 H16          7.8090     0.4910    -1.6610 h1         1 CKR       0.052450
     40 H17          7.0240     2.5780     1.2590 h1         1 CKR       0.052450
     41 H18          6.7420     2.4020    -0.4900 h1         1 CKR       0.052450
     42 H19          4.7320     1.6680     0.7600 h1         1 CKR       0.043200
     43 H20          5.6920     0.5600     1.7500 h1         1 CKR       0.043200
@<TRIPOS>BOND
     1     1     2 1   
     2     1    15 2   
     3     2     3 ar  
     4     2    13 ar  
     5     3     4 ar  
     6     3    19 1   
     7     4     5 1   
     8     4    11 ar  
     9     5     6 2   
    10     5     7 1   
    11     7     8 1   
    12     7    20 1   
    13     8     9 1   
    14     8    10 2   
    15     9    21 1   
    16     9    22 1   
    17    10    11 1   
    18    11    12 ar  
    19    12    13 ar  
    20    12    23 1   
    21    13    14 1   
    22    14    15 1   
    23    14    24 1   
    24    15    16 1   
    25    16    17 1   
    26    16    25 1   
    27    17    18 1   
    28    17    26 1   
    29    17    27 1   
    30    18    28 1   
    31    18    29 1   
    32    18    30 1   
    33    30    31 1   
    34    30    35 1   
    35    31    32 1   
    36    31    36 1   
    37    31    37 1   
    38    32    33 1   
    39    32    38 1   
    40    32    39 1   
    41    33    34 1   
    42    34    35 1   
    43    34    40 1   
    44    34    41 1   
    45    35    42 1   
    46    35    43 1   
@<TRIPOS>SUBSTRUCTURE
     1 CKR         1 TEMP              0 ****  ****    0 ROOT
