@<TRIPOS>MOLECULE
CKS
   78    82     1     0     0
SMALL
No Charge or Current Charge


@<TRIPOS>ATOM
      1 C2           2.7640     0.4840    -1.2730 c6         1 CKS       0.173500
      2 C7           2.1390    -1.6420     1.9000 ca         1 CKS      -0.015500
      3 C9           0.2600    -3.0940     1.3540 ca         1 CKS      -0.066000
      4 C10          0.8430    -3.3790     0.1080 ca         1 CKS      -0.138000
      5 C11          2.0750    -2.8030    -0.2440 ca         1 CKS      -0.015500
      6 C12          1.1810     2.2220    -0.0430 c3         1 CKS      -0.023100
      7 C13          0.9790     3.0140     1.2560 ca         1 CKS      -0.093300
      8 C15         -0.0950     3.3740     3.4230 ca         1 CKS      -0.146000
      9 C18          1.7240     4.1980     1.4640 ca         1 CKS       0.184000
     10 C20         -1.9980     1.1040     2.4980 c          1 CKS       0.599100
     11 C22         -2.4590    -0.3110     2.1470 c3         1 CKS      -0.157400
     12 C8           0.9080    -2.2240     2.2470 ca         1 CKS      -0.138000
     13 C16          0.6580     4.5420     3.6170 ca         1 CKS      -0.073000
     14 C26         -2.7870     1.3680    -0.9310 ca         1 CKS      -0.076750
     15 C30         -1.6970    -0.8100    -0.9350 ca         1 CKS      -0.076750
     16 C31         -5.2340    -1.5930    -0.2480 ca         1 CKS      -0.076750
     17 C35         -3.8010    -2.8330     1.2800 ca         1 CKS      -0.076750
     18 C17          1.5660     4.9550     2.6330 ca         1 CKS      -0.147000
     19 C27         -2.0790     1.7200    -2.0940 ca         1 CKS      -0.152250
     20 C29         -0.9900    -0.4550    -2.0960 ca         1 CKS      -0.152250
     21 C32         -5.9560    -2.7670    -0.5240 ca         1 CKS      -0.152250
     22 C34         -4.5260    -4.0050     1.0010 ca         1 CKS      -0.152250
     23 C25         -2.6050     0.0970    -0.3470 ca         1 CKS      -0.091800
     24 C24         -4.1510    -1.6100     0.6570 ca         1 CKS      -0.091800
     25 C14          0.0480     2.6060     2.2470 ca         1 CKS      -0.025000
     26 C28         -1.1900     0.8060    -2.6760 ca         1 CKS       0.171500
     27 C33         -5.6000    -3.9690     0.1010 ca         1 CKS       0.171500
     28 C6           2.7250    -1.9260     0.6480 ca         1 CKS      -0.289500
     29 C38          4.4330    -0.9460    -2.4660 c6         1 CKS       0.146800
     30 C1           2.7190     1.3760    -2.5720 c6         1 CKS       0.158800
     31 C            4.3850     0.0040    -3.7000 c6         1 CKS       0.171500
     32 C39          4.6990    -0.7440    -5.0180 c3         1 CKS      -0.095100
     33 C4           2.4970     1.4030    -0.0290 c3         1 CKS      -0.084400
     34 C23         -3.3900    -0.2980     0.9060 c3         1 CKS       0.049900
     35 N3           4.0660    -0.2780    -1.1740 n3         1 CKS      -0.700500
     36 N            3.0620     0.6510    -3.8230 n7         1 CKS      -0.850400
     37 O21         -2.7220     1.8770     3.1150 o          1 CKS      -0.570100
     38 F37         -0.5270     1.1390    -3.8040 f          1 CKS      -0.178000
     39 F36         -6.2930    -5.0980    -0.1650 f          1 CKS      -0.178000
     40 F            2.6040     4.6270     0.5300 f          1 CKS      -0.175000
     41 S            4.3450    -1.2480     0.2230 sy         1 CKS       1.134600
     42 H1           1.9320    -0.2310    -1.3400 h1         1 CKS       0.036700
     43 H2           2.6360    -0.9860     2.6120 ha         1 CKS       0.135500
     44 H3          -0.6850    -3.5540     1.6290 ha         1 CKS       0.118000
     45 H4           0.3450    -4.0570    -0.5810 ha         1 CKS       0.117500
     46 H5           2.5250    -3.0520    -1.2030 ha         1 CKS       0.135500
     47 H6           0.3420     1.5460    -0.2430 hc         1 CKS       0.064200
     48 H7           1.1890     2.9280    -0.8820 hc         1 CKS       0.064200
     49 H8          -0.7820     3.0650     4.2060 ha         1 CKS       0.117000
     50 H9          -0.2630     0.7060     1.5170 hn         1 CKS       0.147000
     51 H10         -1.5930    -0.9430     1.9280 hc         1 CKS       0.064700
     52 H11         -3.0190    -0.7080     3.0020 hc         1 CKS       0.064700
     53 H12          0.4620    -2.0100     3.2150 ha         1 CKS       0.117500
     54 H13          0.5390     5.1240     4.5280 ha         1 CKS       0.122000
     55 H15         -1.5500    -1.7940    -0.4990 ha         1 CKS       0.118250
     56 H16         -5.5140    -0.6650    -0.7430 ha         1 CKS       0.118250
     57 H17         -2.9720    -2.8910     1.9790 ha         1 CKS       0.118250
     58 H18          2.1510     5.8610     2.7740 ha         1 CKS       0.137000
     59 H19         -2.2250     2.6970    -2.5470 ha         1 CKS       0.131750
     60 H20         -0.2990    -1.1600    -2.5510 ha         1 CKS       0.131750
     61 H21         -6.7880    -2.7450    -1.2230 ha         1 CKS       0.131750
     62 H22         -4.2540    -4.9420     1.4810 ha         1 CKS       0.131750
     63 H23          3.7670    -1.7990    -2.6550 h1         1 CKS       0.057700
     64 H24          5.4570    -1.3450    -2.4160 h1         1 CKS       0.057700
     65 H25          1.7170     1.8100    -2.6900 h1         1 CKS       0.066700
     66 H26          3.4190     2.2160    -2.4460 h1         1 CKS       0.066700
     67 H27          5.1540     0.7810    -3.5630 h1         1 CKS       0.080700
     68 H28          3.9680    -1.5390    -5.2140 hc         1 CKS       0.044033
     69 H29          4.6880    -0.0580    -5.8740 hc         1 CKS       0.044033
     70 H30          5.6920    -1.2060    -4.9790 hc         1 CKS       0.044033
     71 H31          2.4700     0.8130     0.8890 hc         1 CKS       0.064700
     72 H32          3.3400     2.0940     0.0900 hc         1 CKS       0.064700
     73 H33         -4.1530     0.4680     1.1010 hc         1 CKS       0.080700
     74 H34          2.3590    -0.0810    -3.9740 hn         1 CKS       0.413000
     75 N19         -0.7200     1.4250     2.0630 ns         1 CKS      -0.167000
     76 O            4.8300    -0.3530     1.2800 o          1 CKS      -0.530500
     77 O5           5.1650    -2.3830    -0.2200 o          1 CKS      -0.530500
     78 H14         -3.4800     2.0820    -0.4900 ha         1 CKS       0.118250
@<TRIPOS>BOND
     1     1    30 1   
     2     1    33 1   
     3     1    35 1   
     4     1    42 1   
     5     2    12 ar  
     6     2    28 ar  
     7     2    43 1   
     8     3     4 ar  
     9     3    12 ar  
    10     3    44 1   
    11     4     5 ar  
    12     4    45 1   
    13     5    28 ar  
    14     5    46 1   
    15     6     7 1   
    16     6    33 1   
    17     6    47 1   
    18     6    48 1   
    19     7     9 ar  
    20     7    25 ar  
    21     8    13 ar  
    22     8    25 ar  
    23     8    49 1   
    24     9    18 ar  
    25     9    40 1   
    26    10    11 1   
    27    10    37 2   
    28    10    75 1   
    29    11    34 1   
    30    11    51 1   
    31    11    52 1   
    32    12    53 1   
    33    13    18 ar  
    34    13    54 1   
    35    14    19 ar  
    36    14    23 ar  
    37    14    78 1   
    38    15    20 ar  
    39    15    23 ar  
    40    15    55 1   
    41    16    21 ar  
    42    16    24 ar  
    43    16    56 1   
    44    17    22 ar  
    45    17    24 ar  
    46    17    57 1   
    47    18    58 1   
    48    19    26 ar  
    49    19    59 1   
    50    20    26 ar  
    51    20    60 1   
    52    21    27 ar  
    53    21    61 1   
    54    22    27 ar  
    55    22    62 1   
    56    23    34 1   
    57    24    34 1   
    58    25    75 1   
    59    26    38 1   
    60    27    39 1   
    61    28    41 1   
    62    29    31 1   
    63    29    35 1   
    64    29    63 1   
    65    29    64 1   
    66    30    36 1   
    67    30    65 1   
    68    30    66 1   
    69    31    32 1   
    70    31    36 1   
    71    31    67 1   
    72    32    68 1   
    73    32    69 1   
    74    32    70 1   
    75    33    71 1   
    76    33    72 1   
    77    34    73 1   
    78    35    41 1   
    79    36    74 1   
    80    41    76 2   
    81    41    77 2   
    82    50    75 1   
@<TRIPOS>SUBSTRUCTURE
     1 CKS         1 TEMP              0 ****  ****    0 ROOT
