@<TRIPOS>MOLECULE
CKS
   78    82     1     0     0
SMALL
abcg2


@<TRIPOS>ATOM
      1 C2           2.6010     0.8620    -1.0310 c6         1 CKS       0.173500
      2 C7           2.0700    -1.5580     1.8680 ca         1 CKS      -0.015500
      3 C9           0.3910    -3.2350     1.4570 ca         1 CKS      -0.066000
      4 C10          1.0070    -3.5670     0.2570 ca         1 CKS      -0.138000
      5 C11          2.1580    -2.9060    -0.1410 ca         1 CKS      -0.015500
      6 C12          1.3520     2.6130     0.3080 c3         1 CKS      -0.023100
      7 C13          1.1170     3.1030     1.7080 ca         1 CKS      -0.093300
      8 C15          0.2060     2.8490     3.9460 ca         1 CKS      -0.146000
      9 C18          1.7690     4.2330     2.1820 ca         1 CKS       0.184000
     10 C20         -1.5030     1.2580     1.5060 c          1 CKS       0.599100
     11 C22         -2.2520    -0.0560     1.4660 c3         1 CKS      -0.157400
     12 C8           0.9260    -2.2380     2.2630 ca         1 CKS      -0.138000
     13 C16          0.8850     3.9790     4.3720 ca         1 CKS      -0.073000
     14 C26         -2.8780     0.3620    -2.2160 ca         1 CKS      -0.076750
     15 C30         -1.0720    -0.8060    -1.1780 ca         1 CKS      -0.076750
     16 C31         -5.3360    -1.3180     0.6270 ca         1 CKS      -0.076750
     17 C35         -3.4570    -2.7280     0.1880 ca         1 CKS      -0.076750
     18 C17          1.6730     4.6900     3.4810 ca         1 CKS      -0.147000
     19 C27         -2.2200     0.3320    -3.4350 ca         1 CKS      -0.152250
     20 C29         -0.4060    -0.8690    -2.3940 ca         1 CKS      -0.152250
     21 C32         -6.1550    -2.4300     0.7720 ca         1 CKS      -0.152250
     22 C34         -4.2550    -3.8540     0.3310 ca         1 CKS      -0.152250
     23 C25         -2.3220    -0.2060    -1.0710 ca         1 CKS      -0.091800
     24 C24         -3.9830    -1.4460     0.3320 ca         1 CKS      -0.091800
     25 C14          0.3220     2.4160     2.6300 ca         1 CKS      -0.025000
     26 C28         -0.9900    -0.2940    -3.5020 ca         1 CKS       0.171500
     27 C33         -5.5950    -3.6830     0.6210 ca         1 CKS       0.171500
     28 C6           2.6740    -1.8940     0.6640 ca         1 CKS      -0.289500
     29 C38          3.7300    -0.7720    -2.4610 c6         1 CKS       0.146800
     30 C1           2.6850     1.8350    -2.2180 c6         1 CKS       0.158800
     31 C            3.8220     0.2380    -3.5970 c6         1 CKS       0.171500
     32 C39          3.7830    -0.4750    -4.9370 c3         1 CKS      -0.095100
     33 C4           2.5520     1.6560     0.2740 c3         1 CKS      -0.084400
     34 C23         -3.1170    -0.2060     0.2160 c3         1 CKS       0.049900
     35 N3           3.7310    -0.0900    -1.1570 n3         1 CKS      -0.700500
     36 N            2.7730     1.2340    -3.5260 n7         1 CKS      -0.850400
     37 O21         -1.9010     2.2600     0.9420 o          1 CKS      -0.570100
     38 F37         -0.3360    -0.3350    -4.6770 f          1 CKS      -0.178000
     39 F36         -6.3750    -4.7680     0.7570 f          1 CKS      -0.178000
     40 F            2.5550     4.9160     1.3310 f          1 CKS      -0.175000
     41 S            4.1500    -1.0540     0.1370 sy         1 CKS       1.134600
     42 H1           1.6610     0.2950    -1.1110 h1         1 CKS       0.036700
     43 H2           2.4920    -0.7950     2.5070 ha         1 CKS       0.135500
     44 H3          -0.5000    -3.7630     1.7730 ha         1 CKS       0.118000
     45 H4           0.5980    -4.3520    -0.3660 ha         1 CKS       0.117500
     46 H5           2.6500    -3.1950    -1.0610 ha         1 CKS       0.135500
     47 H6           0.4650     2.1020    -0.0650 hc         1 CKS       0.064200
     48 H7           1.5090     3.4630    -0.3550 hc         1 CKS       0.064200
     49 H8          -0.4240     2.2980     4.6330 ha         1 CKS       0.117000
     50 H9          -0.1980     0.4170     2.8110 hn         1 CKS       0.147000
     51 H10         -1.5690    -0.9010     1.5810 hc         1 CKS       0.064700
     52 H11         -2.8990    -0.0830     2.3490 hc         1 CKS       0.064700
     53 H12          0.4620    -1.9980     3.2110 ha         1 CKS       0.117500
     54 H13          0.7950     4.3120     5.3970 ha         1 CKS       0.122000
     55 H15         -0.5920    -1.2440    -0.3120 ha         1 CKS       0.118250
     56 H16         -5.7680    -0.3320     0.7470 ha         1 CKS       0.118250
     57 H17         -2.4100    -2.8700    -0.0530 ha         1 CKS       0.118250
     58 H18          2.2070     5.5800     3.7880 ha         1 CKS       0.137000
     59 H19         -2.6570     0.7840    -4.3160 ha         1 CKS       0.131750
     60 H20          0.5490    -1.3710    -2.4770 ha         1 CKS       0.131750
     61 H21         -7.2080    -2.3190     0.9960 ha         1 CKS       0.131750
     62 H22         -3.8410    -4.8460     0.2120 ha         1 CKS       0.131750
     63 H23          2.8150    -1.3700    -2.5900 h1         1 CKS       0.057700
     64 H24          4.5770    -1.4500    -2.5190 h1         1 CKS       0.057700
     65 H25          1.8060     2.4780    -2.2050 h1         1 CKS       0.066700
     66 H26          3.5580     2.4780    -2.0640 h1         1 CKS       0.066700
     67 H27          4.7800     0.7620    -3.4960 h1         1 CKS       0.080700
     68 H28          2.8420    -1.0150    -5.0670 hc         1 CKS       0.044033
     69 H29          3.8760     0.2400    -5.7540 hc         1 CKS       0.044033
     70 H30          4.5950    -1.1970    -5.0240 hc         1 CKS       0.044033
     71 H31          2.4460     0.9900     1.1260 hc         1 CKS       0.064700
     72 H32          3.4820     2.2110     0.4140 hc         1 CKS       0.064700
     73 H33         -3.7910     0.6530     0.1820 hc         1 CKS       0.080700
     74 H34          1.8850     0.8180    -3.7810 hn         1 CKS       0.413000
     75 N19         -0.3650     1.2360     2.2470 ns         1 CKS      -0.167000
     76 O            4.6010    -0.2020     1.2230 o          1 CKS      -0.530500
     77 O5           5.0700    -2.0620    -0.3680 o          1 CKS      -0.530500
     78 H14         -3.8470     0.8430    -2.1570 ha         1 CKS       0.118250
@<TRIPOS>BOND
     1     1    30 1   
     2     1    33 1   
     3     1    35 1   
     4     1    42 1   
     5     2    12 ar  
     6     2    28 ar  
     7     2    43 1   
     8     3     4 ar  
     9     3    12 ar  
    10     3    44 1   
    11     4     5 ar  
    12     4    45 1   
    13     5    28 ar  
    14     5    46 1   
    15     6     7 1   
    16     6    33 1   
    17     6    47 1   
    18     6    48 1   
    19     7     9 ar  
    20     7    25 ar  
    21     8    13 ar  
    22     8    25 ar  
    23     8    49 1   
    24     9    18 ar  
    25     9    40 1   
    26    10    11 1   
    27    10    37 2   
    28    10    75 1   
    29    11    34 1   
    30    11    51 1   
    31    11    52 1   
    32    12    53 1   
    33    13    18 ar  
    34    13    54 1   
    35    14    19 ar  
    36    14    23 ar  
    37    14    78 1   
    38    15    20 ar  
    39    15    23 ar  
    40    15    55 1   
    41    16    21 ar  
    42    16    24 ar  
    43    16    56 1   
    44    17    22 ar  
    45    17    24 ar  
    46    17    57 1   
    47    18    58 1   
    48    19    26 ar  
    49    19    59 1   
    50    20    26 ar  
    51    20    60 1   
    52    21    27 ar  
    53    21    61 1   
    54    22    27 ar  
    55    22    62 1   
    56    23    34 1   
    57    24    34 1   
    58    25    75 1   
    59    26    38 1   
    60    27    39 1   
    61    28    41 1   
    62    29    31 1   
    63    29    35 1   
    64    29    63 1   
    65    29    64 1   
    66    30    36 1   
    67    30    65 1   
    68    30    66 1   
    69    31    32 1   
    70    31    36 1   
    71    31    67 1   
    72    32    68 1   
    73    32    69 1   
    74    32    70 1   
    75    33    71 1   
    76    33    72 1   
    77    34    73 1   
    78    35    41 1   
    79    36    74 1   
    80    41    76 2   
    81    41    77 2   
    82    50    75 1   
@<TRIPOS>SUBSTRUCTURE
     1 CKS         1 TEMP              0 ****  ****    0 ROOT
