@<TRIPOS>MOLECULE
CKU
   30    30     1     0     0
SMALL
abcg2


@<TRIPOS>ATOM
      1 C10        155.8020  -864.3460   272.6910 c6         1 CKU      -0.232700
      2 C01        157.1800  -862.8030   267.1790 c3         1 CKU      -0.089100
      3 C02        157.1320  -862.0390   268.4980 c3         1 CKU      -0.079400
      4 C03        157.5440  -862.8560   269.7290 c3         1 CKU       0.175800
      5 N04        156.4360  -863.3330   270.5400 n3         1 CKU      -0.729600
      6 C05        155.5620  -864.2370   269.8200 c6         1 CKU       0.169800
      7 C06        154.3720  -864.6380   270.6760 c6         1 CKU       0.161300
      8 O07        153.5610  -865.4960   269.9020 oh         1 CKU      -0.687000
      9 C08        154.8490  -865.2960   271.9590 c6         1 CKU       0.165300
     10 O09        153.7370  -865.6460   272.7420 oh         1 CKU      -0.744000
     11 C11        156.9350  -863.9420   271.7620 c6         1 CKU       0.182800
     12 C12        156.2930  -864.9460   274.0260 c          1 CKU       0.724000
     13 O13        155.4510  -865.6410   274.6590 o          1 CKU      -0.720500
     14 O14        157.4460  -864.6950   274.3990 o          1 CKU      -0.720500
     15 H1         155.2340  -863.4380   272.9430 hc         1 CKU       0.054700
     16 H2         156.8800  -862.1680   266.3450 hc         1 CKU       0.026700
     17 H3         158.1920  -863.1570   266.9730 hc         1 CKU       0.026700
     18 H4         156.5260  -863.6760   267.1790 hc         1 CKU       0.026700
     19 H5         157.7990  -861.1780   268.4160 hc         1 CKU       0.038700
     20 H6         156.1350  -861.6220   268.6630 hc         1 CKU       0.038700
     21 H7         158.1920  -863.6930   269.4100 h1         1 CKU       0.024200
     22 H8         158.1610  -862.2340   270.3810 h1         1 CKU       0.024200
     23 H10        155.1920  -863.7440   268.9190 h1         1 CKU       0.026200
     24 H11        156.0980  -865.1480   269.4930 h1         1 CKU       0.026200
     25 H12        153.8230  -863.7230   270.9490 h1         1 CKU       0.038700
     26 H13        152.8490  -865.8130   270.4670 ho         1 CKU       0.456000
     27 H14        155.4260  -866.1950   271.6710 h1         1 CKU       0.021700
     28 H15        154.1440  -865.7710   273.6360 ho         1 CKU       0.519000
     29 H16        157.5650  -864.8230   271.5410 h1         1 CKU       0.037700
     30 H17        157.5790  -863.2200   272.2660 h1         1 CKU       0.037700
@<TRIPOS>BOND
     1     1     9 1   
     2     1    11 1   
     3     1    12 1   
     4     1    15 1   
     5     2     3 1   
     6     2    16 1   
     7     2    17 1   
     8     2    18 1   
     9     3     4 1   
    10     3    19 1   
    11     3    20 1   
    12     4     5 1   
    13     4    21 1   
    14     4    22 1   
    15     5     6 1   
    16     5    11 1   
    17     6     7 1   
    18     6    23 1   
    19     6    24 1   
    20     7     8 1   
    21     7     9 1   
    22     7    25 1   
    23     8    26 1   
    24     9    10 1   
    25     9    27 1   
    26    10    28 1   
    27    11    29 1   
    28    11    30 1   
    29    12    13 1   
    30    12    14 1   
@<TRIPOS>SUBSTRUCTURE
     1 CKU         1 TEMP              0 ****  ****    0 ROOT
