@<TRIPOS>MOLECULE
CKU
   30    30     1     0     0
SMALL
No Charge or Current Charge


@<TRIPOS>ATOM
      1 C10        155.7180  -864.3270   272.7160 c6         1 CKU      -0.232700
      2 C01        157.2390  -862.7610   267.1520 c3         1 CKU      -0.089100
      3 C02        157.1630  -861.9420   268.4610 c3         1 CKU      -0.079400
      4 C03        157.5480  -862.7320   269.7380 c3         1 CKU       0.175800
      5 N04        156.4160  -863.2810   270.5310 n3         1 CKU      -0.729600
      6 C05        155.5570  -864.2490   269.7790 c6         1 CKU       0.169800
      7 C06        154.3440  -864.7410   270.6220 c6         1 CKU       0.161300
      8 O07        153.5510  -865.7070   269.9080 oh         1 CKU      -0.687000
      9 C08        154.8410  -865.3550   271.9640 c6         1 CKU       0.165300
     10 O09        153.7170  -865.7620   272.7660 oh         1 CKU      -0.744000
     11 C11        156.8890  -863.8670   271.8170 c6         1 CKU       0.182800
     12 C12        156.2680  -864.8680   274.0410 c          1 CKU       0.724000
     13 O13        155.9840  -864.2690   275.0670 o          1 CKU      -0.720500
     14 O14        156.9340  -865.8920   274.0160 o          1 CKU      -0.720500
     15 H1         155.1110  -863.4420   272.9500 hc         1 CKU       0.054700
     16 H2         156.9740  -862.1310   266.2950 hc         1 CKU       0.026700
     17 H3         158.2570  -863.1390   266.9940 hc         1 CKU       0.026700
     18 H4         156.5560  -863.6170   267.1670 hc         1 CKU       0.026700
     19 H5         157.8550  -861.0970   268.3630 hc         1 CKU       0.038700
     20 H6         156.1630  -861.5070   268.5750 hc         1 CKU       0.038700
     21 H7         158.2490  -863.5350   269.4680 h1         1 CKU       0.024200
     22 H8         158.1070  -862.0390   270.3810 h1         1 CKU       0.024200
     23 H10        155.1550  -863.7740   268.8740 h1         1 CKU       0.026200
     24 H11        156.1550  -865.1160   269.4600 h1         1 CKU       0.026200
     25 H12        153.7240  -863.8630   270.8580 h1         1 CKU       0.038700
     26 H13        153.0400  -866.1630   270.6170 ho         1 CKU       0.456000
     27 H14        155.4600  -866.2340   271.7280 h1         1 CKU       0.021700
     28 H15        154.0840  -866.2590   273.5340 ho         1 CKU       0.519000
     29 H16        157.5530  -864.7220   271.6180 h1         1 CKU       0.037700
     30 H17        157.4820  -863.1250   272.3720 h1         1 CKU       0.037700
@<TRIPOS>BOND
     1     1     9 1   
     2     1    11 1   
     3     1    12 1   
     4     1    15 1   
     5     2     3 1   
     6     2    16 1   
     7     2    17 1   
     8     2    18 1   
     9     3     4 1   
    10     3    19 1   
    11     3    20 1   
    12     4     5 1   
    13     4    21 1   
    14     4    22 1   
    15     5     6 1   
    16     5    11 1   
    17     6     7 1   
    18     6    23 1   
    19     6    24 1   
    20     7     8 1   
    21     7     9 1   
    22     7    25 1   
    23     8    26 1   
    24     9    10 1   
    25     9    27 1   
    26    10    28 1   
    27    11    29 1   
    28    11    30 1   
    29    12    13 1   
    30    12    14 1   
@<TRIPOS>SUBSTRUCTURE
     1 CKU         1 TEMP              0 ****  ****    0 ROOT
