@<TRIPOS>MOLECULE
CKV
   78    82     1     0     0
SMALL
bcc


@<TRIPOS>ATOM
      1 C2          -3.3290     0.4380     1.2030 c6         1 CKV       0.213500
      2 C7          -1.3660    -2.6790     0.4320 ca         1 CKV      -0.039000
      3 C9           0.4380    -3.1030    -1.1010 ca         1 CKV      -0.082000
      4 C10         -0.3410    -2.6420    -2.1540 ca         1 CKV      -0.151500
      5 C11         -1.6370    -2.2000    -1.9250 ca         1 CKV      -0.039000
      6 C12         -1.8830     2.3060     0.3300 c3         1 CKV      -0.022100
      7 C13         -1.4600     3.1140    -0.8650 ca         1 CKV      -0.165300
      8 C15          0.0270     3.5800    -2.7310 ca         1 CKV      -0.153000
      9 C18         -2.1880     4.2300    -1.2520 ca         1 CKV       0.159900
     10 C20          1.7060     1.3930    -1.4340 c          1 CKV       0.676100
     11 C22          2.0880    -0.0250    -1.0710 c3         1 CKV      -0.162400
     12 C8          -0.0710    -3.1110     0.1920 ca         1 CKV      -0.151500
     13 C16         -0.7210     4.7020    -3.0500 ca         1 CKV      -0.080000
     14 C26          5.3350     0.8530     0.7160 ca         1 CKV      -0.096750
     15 C30          3.0790     1.0890     1.4630 ca         1 CKV      -0.096750
     16 C31          3.4960    -2.3330     0.6910 ca         1 CKV      -0.096750
     17 C35          4.3050    -2.4430    -1.5570 ca         1 CKV      -0.096750
     18 C17         -1.8460     5.0400    -2.3150 ca         1 CKV      -0.184000
     19 C27          5.7910     1.5580     1.8170 ca         1 CKV      -0.169250
     20 C29          3.5120     1.8000     2.5760 ca         1 CKV      -0.169250
     21 C32          3.6510    -3.7040     0.8250 ca         1 CKV      -0.169250
     22 C34          4.4700    -3.8170    -1.4450 ca         1 CKV      -0.169250
     23 C25          3.9770     0.6060     0.5180 ca         1 CKV      -0.094300
     24 C24          3.8150    -1.6830    -0.4990 ca         1 CKV      -0.094300
     25 C14         -0.3410     2.7880    -1.6450 ca         1 CKV       0.101600
     26 C28          4.8640     2.0220     2.7330 ca         1 CKV       0.138400
     27 C33          4.1350    -4.4240    -0.2510 ca         1 CKV       0.138400
     28 C6          -2.1390    -2.2280    -0.6310 ca         1 CKV      -0.287500
     29 C38         -4.2610    -1.5180     2.3170 c6         1 CKV       0.189800
     30 C1          -4.4440     1.2750     1.8460 c6         1 CKV       0.145800
     31 C           -5.3870    -0.6850     2.9280 c6         1 CKV       0.164500
     32 C39         -6.6800    -0.8230     2.1350 c3         1 CKV      -0.083100
     33 C4          -2.7890     1.1260    -0.0500 c3         1 CKV      -0.091400
     34 C23          3.5540    -0.2020    -0.6880 c3         1 CKV       0.051900
     35 N3          -3.8680    -0.9240     1.0390 n3         1 CKV      -0.800500
     36 N           -4.9990     0.7150     3.0620 n7         1 CKV      -0.790200
     37 O21          2.5060     2.2210    -1.8190 o          1 CKV      -0.563100
     38 F37          5.2950     2.7080     3.8040 f          1 CKV      -0.141400
     39 F36          4.2900    -5.7530    -0.1280 f          1 CKV      -0.141400
     40 F           -3.2850     4.5460    -0.5420 f          1 CKV      -0.143900
     41 S           -3.8400    -1.8020    -0.3340 sy         1 CKV       1.337200
     42 H1          -2.4980     0.3480     1.9180 h1         1 CKV       0.032700
     43 H2          -1.7560    -2.6910     1.4420 ha         1 CKV       0.147500
     44 H3           1.4490    -3.4400    -1.2870 ha         1 CKV       0.141000
     45 H4           0.0590    -2.6260    -3.1590 ha         1 CKV       0.138500
     46 H5          -2.2390    -1.8390    -2.7480 ha         1 CKV       0.147500
     47 H6          -1.0020     1.9370     0.8610 hc         1 CKV       0.053700
     48 H7          -2.3910     2.9590     1.0380 hc         1 CKV       0.053700
     49 H8           0.8790     3.3200    -3.3380 ha         1 CKV       0.159000
     50 H9          -0.1720     0.8590    -0.9440 hn         1 CKV       0.320500
     51 H10          1.4340    -0.4230    -0.2890 hc         1 CKV       0.065700
     52 H11          1.8810    -0.6430    -1.9510 hc         1 CKV       0.065700
     53 H12          0.5390    -3.4580     1.0150 ha         1 CKV       0.138500
     54 H13         -0.4290     5.3120    -3.8940 ha         1 CKV       0.140000
     55 H15          2.0150     0.9190     1.3540 ha         1 CKV       0.135000
     56 H16          3.1140    -1.7710     1.5340 ha         1 CKV       0.135000
     57 H17          4.5630    -1.9580    -2.4900 ha         1 CKV       0.135000
     58 H18         -2.4470     5.9040    -2.5640 ha         1 CKV       0.155000
     59 H19          6.8470     1.7460     1.9590 ha         1 CKV       0.151750
     60 H20          2.8040     2.1730     3.3050 ha         1 CKV       0.151750
     61 H21          3.3990    -4.2030     1.7520 ha         1 CKV       0.151750
     62 H22          4.8540    -4.3990    -2.2720 ha         1 CKV       0.151750
     63 H23         -3.3940    -1.5160     2.9880 h1         1 CKV       0.060200
     64 H24         -4.5720    -2.5500     2.1810 h1         1 CKV       0.060200
     65 H25         -4.0700     2.2730     2.0770 h1         1 CKV       0.067200
     66 H26         -5.2370     1.3970     1.1020 h1         1 CKV       0.067200
     67 H27         -5.5610    -1.0670     3.9370 h1         1 CKV       0.059700
     68 H28         -7.0100    -1.8620     2.1210 hc         1 CKV       0.045367
     69 H29         -7.4700    -0.2240     2.5870 hc         1 CKV       0.045367
     70 H30         -6.5650    -0.5010     1.0990 hc         1 CKV       0.045367
     71 H31         -2.2130     0.4290    -0.6630 hc         1 CKV       0.063700
     72 H32         -3.6100     1.4720    -0.6790 hc         1 CKV       0.063700
     73 H33          4.1570     0.1340    -1.5360 hc         1 CKV       0.081700
     74 H34         -4.3130     0.7970     3.8030 hn         1 CKV       0.348800
     75 N19          0.3680     1.6230    -1.3150 ns         1 CKV      -0.493100
     76 O           -4.2910    -0.9880    -1.4520 o          1 CKV      -0.607300
     77 O5          -4.5480    -3.0440    -0.0620 o          1 CKV      -0.607300
     78 H14          6.0540     0.4850    -0.0070 ha         1 CKV       0.135000
@<TRIPOS>BOND
     1     1    30 1   
     2     1    33 1   
     3     1    35 1   
     4     1    42 1   
     5     2    12 ar  
     6     2    28 ar  
     7     2    43 1   
     8     3     4 ar  
     9     3    12 ar  
    10     3    44 1   
    11     4     5 ar  
    12     4    45 1   
    13     5    28 ar  
    14     5    46 1   
    15     6     7 1   
    16     6    33 1   
    17     6    47 1   
    18     6    48 1   
    19     7     9 ar  
    20     7    25 ar  
    21     8    13 ar  
    22     8    25 ar  
    23     8    49 1   
    24     9    18 ar  
    25     9    40 1   
    26    10    11 1   
    27    10    37 2   
    28    10    75 1   
    29    11    34 1   
    30    11    51 1   
    31    11    52 1   
    32    12    53 1   
    33    13    18 ar  
    34    13    54 1   
    35    14    19 ar  
    36    14    23 ar  
    37    14    78 1   
    38    15    20 ar  
    39    15    23 ar  
    40    15    55 1   
    41    16    21 ar  
    42    16    24 ar  
    43    16    56 1   
    44    17    22 ar  
    45    17    24 ar  
    46    17    57 1   
    47    18    58 1   
    48    19    26 ar  
    49    19    59 1   
    50    20    26 ar  
    51    20    60 1   
    52    21    27 ar  
    53    21    61 1   
    54    22    27 ar  
    55    22    62 1   
    56    23    34 1   
    57    24    34 1   
    58    25    75 1   
    59    26    38 1   
    60    27    39 1   
    61    28    41 1   
    62    29    31 1   
    63    29    35 1   
    64    29    63 1   
    65    29    64 1   
    66    30    36 1   
    67    30    65 1   
    68    30    66 1   
    69    31    32 1   
    70    31    36 1   
    71    31    67 1   
    72    32    68 1   
    73    32    69 1   
    74    32    70 1   
    75    33    71 1   
    76    33    72 1   
    77    34    73 1   
    78    35    41 1   
    79    36    74 1   
    80    41    76 2   
    81    41    77 2   
    82    50    75 1   
@<TRIPOS>SUBSTRUCTURE
     1 CKV         1 TEMP              0 ****  ****    0 ROOT
