@<TRIPOS>MOLECULE
CKV
   78    82     1     0     0
SMALL
No Charge or Current Charge


@<TRIPOS>ATOM
      1 C2          -2.3100     0.6480     1.5030 c6         1 CKV       0.213500
      2 C7          -1.6750    -2.6400    -1.0170 ca         1 CKV      -0.021000
      3 C9          -0.9360    -2.1140    -3.2780 ca         1 CKV      -0.064000
      4 C10         -1.9450    -1.1420    -3.3810 ca         1 CKV      -0.133500
      5 C11         -2.8260    -0.9200    -2.3090 ca         1 CKV      -0.021000
      6 C12         -0.9950     2.4850     0.1600 c3         1 CKV      -0.022100
      7 C13         -0.7480     3.0730    -1.2380 ca         1 CKV      -0.165300
      8 C15          0.3520     3.0220    -3.4220 ca         1 CKV      -0.135000
      9 C18         -1.4100     4.2590    -1.6320 ca         1 CKV       0.195000
     10 C20          1.9020     0.5830    -2.2520 c          1 CKV       0.609100
     11 C22          2.1510    -0.7820    -1.6070 c3         1 CKV      -0.162400
     12 C8          -0.8060    -2.8660    -2.0980 ca         1 CKV      -0.133500
     13 C16         -0.3090     4.2030    -3.7940 ca         1 CKV      -0.062000
     14 C26          3.1340     1.4260     0.9410 ca         1 CKV      -0.078750
     15 C30          1.7250    -0.4590     1.5630 ca         1 CKV      -0.078750
     16 C31          3.0300    -3.2350    -0.1220 ca         1 CKV      -0.078750
     17 C35          5.0750    -2.0850     0.5230 ca         1 CKV      -0.078750
     18 C17         -1.1900     4.8200    -2.8980 ca         1 CKV      -0.166000
     19 C27          2.6320     2.1580     2.0310 ca         1 CKV      -0.151250
     20 C29          1.2320     0.2710     2.6580 ca         1 CKV      -0.151250
     21 C32          3.5760    -4.4510     0.3250 ca         1 CKV      -0.151250
     22 C34          5.6190    -3.3020     0.9690 ca         1 CKV      -0.151250
     23 C25          2.6850     0.1100     0.7000 ca         1 CKV      -0.094300
     24 C24          3.7790    -2.0380    -0.0320 ca         1 CKV      -0.094300
     25 C14          0.1470     2.4510    -2.1470 ca         1 CKV       0.009000
     26 C28          1.6840     1.5780     2.8870 ca         1 CKV       0.173500
     27 C33          4.8690    -4.4810     0.8660 ca         1 CKV       0.173500
     28 C6          -2.6890    -1.6670    -1.1190 ca         1 CKV      -0.287500
     29 C38         -2.9390    -1.2650     2.8940 c6         1 CKV       0.189800
     30 C1          -3.3810     1.5350     2.2380 c6         1 CKV       0.145800
     31 C           -3.9510    -0.3830     3.7190 c6         1 CKV       0.164500
     32 C39         -5.4450    -0.6300     3.3740 c3         1 CKV      -0.083100
     33 C4          -1.8900     1.2240     0.1180 c3         1 CKV      -0.091400
     34 C23          3.2250    -0.6820    -0.4940 c3         1 CKV       0.051900
     35 N3          -2.6950    -0.8020     1.4900 n3         1 CKV      -0.800500
     36 N           -3.6450     1.0780     3.6400 n7         1 CKV      -0.845400
     37 O21          2.6430     1.0310    -3.1190 o          1 CKV      -0.563100
     38 F37          1.2000     2.2830     3.9320 f          1 CKV      -0.176500
     39 F36          5.3910    -5.6510     1.2960 f          1 CKV      -0.176500
     40 F           -2.2780     4.8750    -0.7970 f          1 CKV      -0.179000
     41 S           -3.7810    -1.3710     0.2850 sy         1 CKV       1.195600
     42 H1          -1.4010     0.7190     2.1160 h1         1 CKV       0.032700
     43 H2          -1.5580    -3.2170    -0.1000 ha         1 CKV       0.129500
     44 H3          -0.2580    -2.2870    -4.1120 ha         1 CKV       0.123000
     45 H4          -2.0470    -0.5600    -4.2950 ha         1 CKV       0.120500
     46 H5          -3.6030    -0.1630    -2.4040 ha         1 CKV       0.129500
     47 H6          -0.0400     2.2280     0.6330 hc         1 CKV       0.053700
     48 H7          -1.4470     3.2310     0.8220 hc         1 CKV       0.053700
     49 H8           1.0090     2.5510    -4.1470 ha         1 CKV       0.141000
     50 H9           0.3220     0.7570    -1.0070 hn         1 CKV       0.154000
     51 H10          1.2220    -1.1540    -1.1610 hc         1 CKV       0.065700
     52 H11          2.5100    -1.4710    -2.3800 hc         1 CKV       0.065700
     53 H12         -0.0280    -3.6220    -2.0190 ha         1 CKV       0.120500
     54 H13         -0.1430     4.6320    -4.7810 ha         1 CKV       0.122000
     55 H15          1.3600    -1.4700     1.3910 ha         1 CKV       0.117000
     56 H16          2.0220    -3.2350    -0.5280 ha         1 CKV       0.117000
     57 H17          5.6630    -1.1730     0.6120 ha         1 CKV       0.117000
     58 H18         -1.7100     5.7310    -3.1830 ha         1 CKV       0.137000
     59 H19          2.9760     3.1730     2.2130 ha         1 CKV       0.133750
     60 H20          0.4990    -0.1740     3.3250 ha         1 CKV       0.133750
     61 H21          2.9980    -5.3680     0.2540 ha         1 CKV       0.133750
     62 H22          6.6190    -3.3320     1.3940 ha         1 CKV       0.133750
     63 H23         -1.9810    -1.2280     3.4340 h1         1 CKV       0.060200
     64 H24         -3.2450    -2.3190     2.9380 h1         1 CKV       0.060200
     65 H25         -3.0380     2.5790     2.2680 h1         1 CKV       0.067200
     66 H26         -4.3190     1.5320     1.6650 h1         1 CKV       0.067200
     67 H27         -3.8440    -0.6880     4.7720 h1         1 CKV       0.059700
     68 H28         -5.6820    -1.7000     3.4030 hc         1 CKV       0.045367
     69 H29         -6.0970    -0.1310     4.1000 hc         1 CKV       0.045367
     70 H30         -5.7160    -0.2530     2.3840 hc         1 CKV       0.045367
     71 H31         -1.3340     0.4540    -0.4210 hc         1 CKV       0.063700
     72 H32         -2.7790     1.4530    -0.4810 hc         1 CKV       0.063700
     73 H33          4.0690    -0.1310    -0.9300 hc         1 CKV       0.081700
     74 H34         -2.7880     1.2420     4.1820 hn         1 CKV       0.404000
     75 N19          0.7820     1.2380    -1.7680 ns         1 CKV      -0.167000
     76 O           -4.7370    -0.3010    -0.0190 o          1 CKV      -0.536500
     77 O5          -4.2450    -2.6840     0.7490 o          1 CKV      -0.536500
     78 H14          3.8700     1.8850     0.2830 ha         1 CKV       0.117000
@<TRIPOS>BOND
     1     1    30 1   
     2     1    33 1   
     3     1    35 1   
     4     1    42 1   
     5     2    12 ar  
     6     2    28 ar  
     7     2    43 1   
     8     3     4 ar  
     9     3    12 ar  
    10     3    44 1   
    11     4     5 ar  
    12     4    45 1   
    13     5    28 ar  
    14     5    46 1   
    15     6     7 1   
    16     6    33 1   
    17     6    47 1   
    18     6    48 1   
    19     7     9 ar  
    20     7    25 ar  
    21     8    13 ar  
    22     8    25 ar  
    23     8    49 1   
    24     9    18 ar  
    25     9    40 1   
    26    10    11 1   
    27    10    37 2   
    28    10    75 1   
    29    11    34 1   
    30    11    51 1   
    31    11    52 1   
    32    12    53 1   
    33    13    18 ar  
    34    13    54 1   
    35    14    19 ar  
    36    14    23 ar  
    37    14    78 1   
    38    15    20 ar  
    39    15    23 ar  
    40    15    55 1   
    41    16    21 ar  
    42    16    24 ar  
    43    16    56 1   
    44    17    22 ar  
    45    17    24 ar  
    46    17    57 1   
    47    18    58 1   
    48    19    26 ar  
    49    19    59 1   
    50    20    26 ar  
    51    20    60 1   
    52    21    27 ar  
    53    21    61 1   
    54    22    27 ar  
    55    22    62 1   
    56    23    34 1   
    57    24    34 1   
    58    25    75 1   
    59    26    38 1   
    60    27    39 1   
    61    28    41 1   
    62    29    31 1   
    63    29    35 1   
    64    29    63 1   
    65    29    64 1   
    66    30    36 1   
    67    30    65 1   
    68    30    66 1   
    69    31    32 1   
    70    31    36 1   
    71    31    67 1   
    72    32    68 1   
    73    32    69 1   
    74    32    70 1   
    75    33    71 1   
    76    33    72 1   
    77    34    73 1   
    78    35    41 1   
    79    36    74 1   
    80    41    76 2   
    81    41    77 2   
    82    50    75 1   
@<TRIPOS>SUBSTRUCTURE
     1 CKV         1 TEMP              0 ****  ****    0 ROOT
