@<TRIPOS>MOLECULE
CKW
   49    52     1     0     0
SMALL
No Charge or Current Charge


@<TRIPOS>ATOM
      1 O5          -3.2880    -0.2440     0.8940 os         1 CKW      -0.414000
      2 C5          -4.6170    -0.7250     1.2230 c6         1 CKW       0.168300
      3 C4          -5.4950    -0.7400    -0.0660 c6         1 CKW       0.144300
      4 C3          -5.5180     0.6870    -0.6810 c6         1 CKW       0.102300
      5 C2          -4.0720     1.1990    -0.9490 c6         1 CKW       0.113300
      6 C1          -3.2360     1.1140     0.3740 c6         1 CKW       0.152000
      7 C19         -1.7960     1.5440     0.1320 cc         1 CKW       0.392800
      8 O2          -4.1440     2.5420    -1.4840 oh         1 CKW      -0.722000
      9 O3          -6.2870     0.7070    -1.8950 oh         1 CKW      -0.665000
     10 O4          -6.8450    -1.1660     0.1940 oh         1 CKW      -0.718000
     11 C6          -4.4810    -2.1410     1.8700 c3         1 CKW       0.172600
     12 O6          -3.6080    -2.1630     3.0200 oh         1 CKW      -0.712000
     13 N5          -0.7080     0.7200     0.2500 na         1 CKW      -0.481000
     14 C18          0.3960     1.4630    -0.0520 cc         1 CKW       0.448000
     15 N3           0.0060     2.6920    -0.3460 nd         1 CKW      -0.359000
     16 N2          -1.3630     2.7430    -0.2300 nd         1 CKW      -0.338000
     17 C20          1.7790     0.9650    -0.0470 ca         1 CKW      -0.127500
     18 C7           2.8500     1.8230    -0.3790 ca         1 CKW      -0.084000
     19 C8           4.1750     1.3530    -0.3760 ca         1 CKW      -0.103500
     20 C9           4.4780     0.0110    -0.0440 cp         1 CKW      -0.017000
     21 C10          3.3980    -0.8420     0.2860 ca         1 CKW      -0.103500
     22 C11          2.0720    -0.3770     0.2860 ca         1 CKW      -0.084000
     23 C12          5.8910    -0.4890    -0.0430 cp         1 CKW      -0.041000
     24 C13          6.2000    -1.8160    -0.4360 ca         1 CKW      -0.097000
     25 C14          7.5260    -2.2850    -0.4350 ca         1 CKW      -0.111000
     26 C15          8.5720    -1.4360    -0.0400 ca         1 CKW      -0.104000
     27 C16          8.2910    -0.1180     0.3540 ca         1 CKW      -0.111000
     28 C17          6.9650     0.3500     0.3520 ca         1 CKW      -0.097000
     29 H1          -5.0650    -0.0480     1.9650 h1         1 CKW       0.058700
     30 H2          -5.0230    -1.4210    -0.7910 h1         1 CKW       0.059700
     31 H3          -5.9790     1.3650     0.0540 h1         1 CKW       0.051700
     32 H4          -3.6000     0.5270    -1.6840 h1         1 CKW       0.081700
     33 H5          -3.6850     1.7820     1.1230 h1         1 CKW       0.046700
     34 H6          -3.2210     2.8920    -1.5470 ho         1 CKW       0.518000
     35 H7          -6.0090     1.5370    -2.3510 ho         1 CKW       0.455000
     36 H8          -7.3650    -0.8120    -0.5690 ho         1 CKW       0.524000
     37 H9          -5.4840    -2.4860     2.1560 h1         1 CKW       0.039200
     38 H10         -4.1070    -2.8320     1.1020 h1         1 CKW       0.039200
     39 H11         -3.5560    -3.0990     3.3250 ho         1 CKW       0.506000
     40 H12         -0.7310    -0.2510     0.5210 hn         1 CKW       0.363000
     41 H13          2.6620     2.8610    -0.6430 ha         1 CKW       0.122500
     42 H14          4.9730     2.0380    -0.6490 ha         1 CKW       0.119000
     43 H15          3.5890    -1.8770     0.5600 ha         1 CKW       0.119000
     44 H16          1.2770    -1.0700     0.5500 ha         1 CKW       0.122500
     45 H17          5.4080    -2.4870    -0.7580 ha         1 CKW       0.114000
     46 H18          7.7410    -3.3060    -0.7440 ha         1 CKW       0.113500
     47 H19          9.5980    -1.7990    -0.0390 ha         1 CKW       0.114000
     48 H20          9.0990     0.5410     0.6630 ha         1 CKW       0.113500
     49 H21          6.7690     1.3700     0.6730 ha         1 CKW       0.114000
@<TRIPOS>BOND
     1     1     2 1   
     2     1     6 1   
     3     2     3 1   
     4     2    11 1   
     5     2    29 1   
     6     3     4 1   
     7     3    10 1   
     8     3    30 1   
     9     4     5 1   
    10     4     9 1   
    11     4    31 1   
    12     5     6 1   
    13     5     8 1   
    14     5    32 1   
    15     6     7 1   
    16     6    33 1   
    17     7    13 1   
    18     7    16 2   
    19     8    34 1   
    20     9    35 1   
    21    10    36 1   
    22    11    12 1   
    23    11    37 1   
    24    11    38 1   
    25    12    39 1   
    26    13    14 1   
    27    13    40 1   
    28    14    15 2   
    29    14    17 1   
    30    15    16 1   
    31    17    18 ar  
    32    17    22 ar  
    33    18    19 ar  
    34    18    41 1   
    35    19    20 ar  
    36    19    42 1   
    37    20    21 ar  
    38    20    23 1   
    39    21    22 ar  
    40    21    43 1   
    41    22    44 1   
    42    23    24 ar  
    43    23    28 ar  
    44    24    25 ar  
    45    24    45 1   
    46    25    26 ar  
    47    25    46 1   
    48    26    27 ar  
    49    26    47 1   
    50    27    28 ar  
    51    27    48 1   
    52    28    49 1   
@<TRIPOS>SUBSTRUCTURE
     1 CKW         1 TEMP              0 ****  ****    0 ROOT
