@<TRIPOS>MOLECULE
CKW
   49    52     1     0     0
SMALL
bcc


@<TRIPOS>ATOM
      1 O5          -3.7410    -0.9540    -0.2760 os         1 CKW      -0.367600
      2 C5          -4.9910    -1.1490     0.3570 c6         1 CKW       0.145100
      3 C4          -5.8780     0.0810     0.1530 c6         1 CKW       0.121100
      4 C3          -5.1510     1.3260     0.6510 c6         1 CKW       0.079100
      5 C2          -3.7770     1.4350    -0.0010 c6         1 CKW       0.090100
      6 C1          -3.0180     0.1330     0.2450 c6         1 CKW       0.128800
      7 C19         -1.6830     0.1540    -0.4150 cc         1 CKW       0.392800
      8 O2          -3.0190     2.4850     0.5480 oh         1 CKW      -0.599800
      9 O3          -5.9640     2.4400     0.3600 oh         1 CKW      -0.602800
     10 O4          -7.0790    -0.1260     0.8520 oh         1 CKW      -0.595800
     11 C6          -5.6100    -2.3980    -0.2330 c3         1 CKW       0.149400
     12 O6          -4.7880    -3.4990     0.0750 oh         1 CKW      -0.589800
     13 N5          -0.5080     0.0710     0.2440 na         1 CKW      -0.430700
     14 C18          0.4540     0.1290    -0.7080 cc         1 CKW       0.448000
     15 N3          -0.1190     0.2380    -1.8800 nd         1 CKW      -0.359000
     16 N2          -1.4570     0.2570    -1.6940 nd         1 CKW      -0.338000
     17 C20          1.8890     0.0750    -0.4610 ca         1 CKW      -0.127500
     18 C7           2.7730     0.0470    -1.5400 ca         1 CKW      -0.102000
     19 C8           4.1380    -0.0070    -1.3280 ca         1 CKW      -0.121500
     20 C9           4.6690    -0.0340    -0.0360 cp         1 CKW      -0.017000
     21 C10          3.7790    -0.0040     1.0380 ca         1 CKW      -0.121500
     22 C11          2.4110     0.0490     0.8310 ca         1 CKW      -0.102000
     23 C12          6.1260    -0.0930     0.1870 cp         1 CKW      -0.041000
     24 C13          6.6550    -0.8130     1.2610 ca         1 CKW      -0.115000
     25 C14          8.0250    -0.8690     1.4720 ca         1 CKW      -0.129000
     26 C15          8.8930    -0.2080     0.6140 ca         1 CKW      -0.122000
     27 C16          8.3790     0.5110    -0.4580 ca         1 CKW      -0.129000
     28 C17          7.0100     0.5690    -0.6690 ca         1 CKW      -0.115000
     29 H1          -4.8420    -1.2970     1.4400 h1         1 CKW       0.058700
     30 H2          -6.0620     0.1970    -0.9280 h1         1 CKW       0.059700
     31 H3          -5.0060     1.2230     1.7380 h1         1 CKW       0.051700
     32 H4          -3.9010     1.5580    -1.0850 h1         1 CKW       0.081700
     33 H5          -2.8680     0.0150     1.3310 h1         1 CKW       0.046700
     34 H6          -3.1710     3.2820     0.0330 ho         1 CKW       0.419000
     35 H7          -5.7150     3.1660     0.9410 ho         1 CKW       0.416000
     36 H8          -7.6230     0.6620     0.7530 ho         1 CKW       0.425000
     37 H9          -6.6170    -2.5160     0.1810 h1         1 CKW       0.039200
     38 H10         -5.7200    -2.2620    -1.3180 h1         1 CKW       0.039200
     39 H11         -5.2100    -4.2900    -0.2710 ho         1 CKW       0.407000
     40 H12         -0.3900    -0.0210     1.2410 hn         1 CKW       0.312700
     41 H13          2.3890     0.0590    -2.5510 ha         1 CKW       0.140500
     42 H14          4.7970    -0.0520    -2.1850 ha         1 CKW       0.137000
     43 H15          4.1520    -0.0020     2.0540 ha         1 CKW       0.137000
     44 H16          1.7620     0.0800     1.6970 ha         1 CKW       0.140500
     45 H17          5.9930    -1.3520     1.9270 ha         1 CKW       0.132000
     46 H18          8.4150    -1.4370     2.3070 ha         1 CKW       0.131500
     47 H19          9.9610    -0.2510     0.7790 ha         1 CKW       0.132000
     48 H20          9.0460     1.0380    -1.1290 ha         1 CKW       0.131500
     49 H21          6.6260     1.1510    -1.4970 ha         1 CKW       0.132000
@<TRIPOS>BOND
     1     1     2 1   
     2     1     6 1   
     3     2     3 1   
     4     2    11 1   
     5     2    29 1   
     6     3     4 1   
     7     3    10 1   
     8     3    30 1   
     9     4     5 1   
    10     4     9 1   
    11     4    31 1   
    12     5     6 1   
    13     5     8 1   
    14     5    32 1   
    15     6     7 1   
    16     6    33 1   
    17     7    13 1   
    18     7    16 2   
    19     8    34 1   
    20     9    35 1   
    21    10    36 1   
    22    11    12 1   
    23    11    37 1   
    24    11    38 1   
    25    12    39 1   
    26    13    14 1   
    27    13    40 1   
    28    14    15 2   
    29    14    17 1   
    30    15    16 1   
    31    17    18 ar  
    32    17    22 ar  
    33    18    19 ar  
    34    18    41 1   
    35    19    20 ar  
    36    19    42 1   
    37    20    21 ar  
    38    20    23 1   
    39    21    22 ar  
    40    21    43 1   
    41    22    44 1   
    42    23    24 ar  
    43    23    28 ar  
    44    24    25 ar  
    45    24    45 1   
    46    25    26 ar  
    47    25    46 1   
    48    26    27 ar  
    49    26    47 1   
    50    27    28 ar  
    51    27    48 1   
    52    28    49 1   
@<TRIPOS>SUBSTRUCTURE
     1 CKW         1 TEMP              0 ****  ****    0 ROOT
