@<TRIPOS>MOLECULE
CKX
   30    30     1     0     0
SMALL
No Charge or Current Charge


@<TRIPOS>ATOM
      1 N          124.4390  -880.7590   303.0940 n7         1 CKX      -0.877400
      2 C10        125.5120  -882.0480   307.2510 c3         1 CKX      -0.085100
      3 C2         123.8710  -879.9770   301.9700 c6         1 CKX       0.131800
      4 C3         124.9530  -879.6530   300.9020 c6         1 CKX       0.154300
      5 C4         126.1430  -878.9140   301.5860 c6         1 CKX       0.208300
      6 C5         126.6940  -879.7310   302.7810 c6         1 CKX      -0.234700
      7 C6         127.8410  -878.9810   303.4720 c          1 CKX       0.718000
      8 C7         125.5540  -880.0680   303.7860 c6         1 CKX       0.199500
      9 C8         126.0350  -880.9560   304.9760 c3         1 CKX      -0.074400
     10 C9         124.9680  -881.2280   306.0650 c3         1 CKX      -0.074400
     11 O3         124.4130  -878.8570   299.8270 oh         1 CKX      -0.645000
     12 O4         127.1710  -878.6650   300.6160 oh         1 CKX      -0.715000
     13 O61        128.9400  -879.5160   303.5040 o          1 CKX      -0.720500
     14 O62        127.5950  -877.9110   304.0110 o          1 CKX      -0.720500
     15 H1         123.6970  -880.9410   303.7800 hn         1 CKX       0.391000
     16 H3         124.7220  -882.2160   307.9940 hc         1 CKX       0.023367
     17 H4         125.8770  -883.0250   306.9120 hc         1 CKX       0.023367
     18 H5         126.3380  -881.5200   307.7430 hc         1 CKX       0.023367
     19 H6         123.4420  -879.0430   302.3610 h1         1 CKX       0.014700
     20 H7         123.0570  -880.5550   301.5080 h1         1 CKX       0.014700
     21 H8         125.3250  -880.6080   300.5020 h1         1 CKX       0.042700
     22 H9         125.7660  -877.9540   301.9700 h1         1 CKX       0.024700
     23 H10        127.1030  -880.6730   302.3930 hc         1 CKX       0.054700
     24 H11        125.1700  -879.1260   304.2080 h1         1 CKX       0.035700
     25 H12        126.4040  -881.9160   304.5930 hc         1 CKX       0.058700
     26 H13        126.8900  -880.4780   305.4670 hc         1 CKX       0.058700
     27 H14        124.5830  -880.2720   306.4410 hc         1 CKX       0.025200
     28 H15        124.1180  -881.7670   305.6290 hc         1 CKX       0.025200
     29 H16        123.6650  -879.3670   299.4480 ho         1 CKX       0.413000
     30 H17        126.6760  -878.4130   299.8000 ho         1 CKX       0.508000
@<TRIPOS>BOND
     1     1     3 1   
     2     1     8 1   
     3     1    15 1   
     4     2    10 1   
     5     2    16 1   
     6     2    17 1   
     7     2    18 1   
     8     3     4 1   
     9     3    19 1   
    10     3    20 1   
    11     4     5 1   
    12     4    11 1   
    13     4    21 1   
    14     5     6 1   
    15     5    12 1   
    16     5    22 1   
    17     6     7 1   
    18     6     8 1   
    19     6    23 1   
    20     7    13 1   
    21     7    14 1   
    22     8     9 1   
    23     8    24 1   
    24     9    10 1   
    25     9    25 1   
    26     9    26 1   
    27    10    27 1   
    28    10    28 1   
    29    11    29 1   
    30    12    30 1   
@<TRIPOS>SUBSTRUCTURE
     1 CKX         1 TEMP              0 ****  ****    0 ROOT
