@<TRIPOS>MOLECULE
CKX
   30    30     1     0     0
SMALL
bcc


@<TRIPOS>ATOM
      1 N          124.4090  -880.7550   303.0910 n7         1 CKX      -0.822200
      2 C10        125.5960  -881.9390   307.1970 c3         1 CKX      -0.085100
      3 C2         123.8360  -880.0200   301.9860 c6         1 CKX       0.131800
      4 C3         124.8990  -879.8200   300.9160 c6         1 CKX       0.131100
      5 C4         126.0450  -879.0180   301.5020 c6         1 CKX       0.185100
      6 C5         126.5750  -879.6780   302.7970 c6         1 CKX      -0.234700
      7 C6         127.6770  -878.7490   303.3580 c          1 CKX       0.928600
      8 C7         125.4600  -880.0230   303.7880 c6         1 CKX       0.199500
      9 C8         125.9870  -880.8870   304.9320 c3         1 CKX      -0.074400
     10 C9         124.9630  -881.2140   306.0160 c3         1 CKX      -0.074400
     11 O3         124.3960  -879.1210   299.7980 oh         1 CKX      -0.582800
     12 O4         127.0670  -878.8830   300.5490 oh         1 CKX      -0.652800
     13 O61        128.6540  -878.5630   302.5790 o          1 CKX      -0.825800
     14 O62        127.5370  -878.2220   304.4690 o          1 CKX      -0.825800
     15 H1         123.6740  -880.9890   303.7450 hn         1 CKX       0.335800
     16 H3         124.8590  -882.1760   307.9650 hc         1 CKX       0.023367
     17 H4         126.0580  -882.8770   306.8810 hc         1 CKX       0.023367
     18 H5         126.3740  -881.3300   307.6600 hc         1 CKX       0.023367
     19 H6         123.4330  -879.0340   302.2770 h1         1 CKX       0.014700
     20 H7         123.0010  -880.5960   301.5760 h1         1 CKX       0.014700
     21 H8         125.2810  -880.8120   300.6280 h1         1 CKX       0.042700
     22 H9         125.6320  -878.0290   301.7780 h1         1 CKX       0.024700
     23 H10        127.0500  -880.6210   302.4940 hc         1 CKX       0.054700
     24 H11        125.0720  -879.0820   304.2140 h1         1 CKX       0.035700
     25 H12        126.3820  -881.8200   304.5130 hc         1 CKX       0.058700
     26 H13        126.8270  -880.3720   305.3990 hc         1 CKX       0.058700
     27 H14        124.4950  -880.2880   306.3650 hc         1 CKX       0.025200
     28 H15        124.1560  -881.8340   305.6150 hc         1 CKX       0.025200
     29 H16        123.6920  -879.6490   299.4080 ho         1 CKX       0.374000
     30 H17        127.8770  -878.7380   301.0930 ho         1 CKX       0.469000
@<TRIPOS>BOND
     1     1     3 1   
     2     1     8 1   
     3     1    15 1   
     4     2    10 1   
     5     2    16 1   
     6     2    17 1   
     7     2    18 1   
     8     3     4 1   
     9     3    19 1   
    10     3    20 1   
    11     4     5 1   
    12     4    11 1   
    13     4    21 1   
    14     5     6 1   
    15     5    12 1   
    16     5    22 1   
    17     6     7 1   
    18     6     8 1   
    19     6    23 1   
    20     7    13 1   
    21     7    14 1   
    22     8     9 1   
    23     8    24 1   
    24     9    10 1   
    25     9    25 1   
    26     9    26 1   
    27    10    27 1   
    28    10    28 1   
    29    11    29 1   
    30    12    30 1   
@<TRIPOS>SUBSTRUCTURE
     1 CKX         1 TEMP              0 ****  ****    0 ROOT
