@<TRIPOS>MOLECULE
CKY
   78    82     1     0     0
SMALL
No Charge or Current Charge


@<TRIPOS>ATOM
      1 C2           2.4850     0.6060    -1.7640 c6         1 CKY       0.185500
      2 C7           1.6520    -2.7060     0.4590 ca         1 CKY      -0.014500
      3 C9           0.8410    -2.3680     2.7310 ca         1 CKY      -0.062000
      4 C10          1.9000    -1.4770     2.9760 ca         1 CKY      -0.139000
      5 C11          2.8430    -1.2050     1.9690 ca         1 CKY      -0.014500
      6 C12          1.0130     2.2910    -0.3680 c3         1 CKY      -0.020100
      7 C13          0.9870     2.9640     1.0100 ca         1 CKY      -0.096300
      8 C15          0.1310     3.1460     3.2930 ca         1 CKY      -0.128000
      9 C18          1.8040     4.0920     1.2580 ca         1 CKY       0.177000
     10 C20         -1.8670     0.9540     2.3800 c          1 CKY       0.603100
     11 C22         -2.3090    -0.4700     2.0370 c3         1 CKY      -0.156400
     12 C8           0.7190    -2.9820     1.4730 ca         1 CKY      -0.139000
     13 C16          0.9400     4.2700     3.5200 ca         1 CKY      -0.077000
     14 C26         -2.9810     1.1430    -1.0930 ca         1 CKY      -0.078750
     15 C30         -1.6050    -0.8640    -1.0080 ca         1 CKY      -0.078750
     16 C31         -5.2700    -1.8110    -0.0360 ca         1 CKY      -0.078750
     17 C35         -3.5030    -3.0460     1.0950 ca         1 CKY      -0.078750
     18 C17          1.7790     4.7410     2.5000 ca         1 CKY      -0.143000
     19 C27         -2.3420     1.5260    -2.2860 ca         1 CKY      -0.152750
     20 C29         -0.9670    -0.4770    -2.1970 ca         1 CKY      -0.152750
     21 C32         -5.9660    -3.0120    -0.2600 ca         1 CKY      -0.152750
     22 C34         -4.2020    -4.2450     0.8690 ca         1 CKY      -0.152750
     23 C25         -2.6170    -0.0560    -0.4450 ca         1 CKY      -0.094300
     24 C24         -4.0350    -1.8130     0.6480 ca         1 CKY      -0.094300
     25 C14          0.1430     2.4870     2.0450 ca         1 CKY      -0.023000
     26 C28         -1.3370     0.7150    -2.8340 ca         1 CKY       0.170500
     27 C33         -5.4300    -4.2250     0.1940 ca         1 CKY       0.170500
     28 C6           2.7180    -1.8180     0.7050 ca         1 CKY      -0.259500
     29 C            4.5820    -0.1170    -3.6740 c6         1 CKY       0.130800
     30 C1           3.6050     1.6170    -2.2250 c6         1 CKY       0.123800
     31 C38          3.4490    -1.1190    -3.2600 c6         1 CKY       0.181500
     32 C39          2.3100    -1.1570    -4.3180 c3         1 CKY      -0.092100
     33 C4           1.8750     1.0050    -0.3830 c3         1 CKY      -0.093400
     34 C23         -3.3090    -0.4760     0.8530 c3         1 CKY       0.049900
     35 N3           2.9410    -0.8330    -1.8730 n3         1 CKY      -0.769500
     36 N            4.1500     1.3080    -3.5810 n7         1 CKY      -0.843400
     37 O21         -2.5500     1.6880     3.0840 o          1 CKY      -0.576100
     38 F37         -0.7190     1.0890    -3.9740 f          1 CKY      -0.179500
     39 F36         -6.0990    -5.3790    -0.0220 f          1 CKY      -0.179500
     40 F            2.6320     4.5650     0.2980 f          1 CKY      -0.179000
     41 S            3.9090    -1.4840    -0.6040 sy         1 CKY       1.157600
     42 H1           1.6530     0.7390    -2.4700 h1         1 CKY       0.061700
     43 H2           1.5480    -3.1810    -0.5160 ha         1 CKY       0.135500
     44 H3           0.1180    -2.5830     3.5150 ha         1 CKY       0.120000
     45 H4           1.9940    -1.0010     3.9490 ha         1 CKY       0.118500
     46 H5           3.6610    -0.5170     2.1740 ha         1 CKY       0.135500
     47 H6          -0.0050     2.0410    -0.6870 hc         1 CKY       0.064700
     48 H7           1.3690     2.9960    -1.1260 hc         1 CKY       0.064700
     49 H8          -0.4920     2.7820     4.1060 ha         1 CKY       0.121000
     50 H9          -0.2330     0.6430     1.2170 hn         1 CKY       0.155000
     51 H10         -1.4340    -1.0660     1.7600 hc         1 CKY       0.063200
     52 H11         -2.8030    -0.8990     2.9160 hc         1 CKY       0.063200
     53 H12         -0.0990    -3.6730     1.2820 ha         1 CKY       0.118500
     54 H13          0.9250     4.7680     4.4870 ha         1 CKY       0.123000
     55 H15         -1.3150    -1.7950    -0.5270 ha         1 CKY       0.120000
     56 H16         -5.6900    -0.8750    -0.3980 ha         1 CKY       0.120000
     57 H17         -2.5500    -3.0900     1.6140 ha         1 CKY       0.120000
     58 H18          2.4140     5.6060     2.6710 ha         1 CKY       0.136000
     59 H19         -2.6230     2.4510    -2.7840 ha         1 CKY       0.135250
     60 H20         -0.1870    -1.1010    -2.6210 ha         1 CKY       0.135250
     61 H21         -6.9170    -3.0030    -0.7860 ha         1 CKY       0.135250
     62 H22         -3.7910    -5.1900     1.2150 ha         1 CKY       0.135250
     63 H23          5.4530    -0.2740    -3.0200 h1         1 CKY       0.065200
     64 H24          4.9110    -0.3390    -4.7010 h1         1 CKY       0.065200
     65 H25          3.2060     2.6410    -2.2320 h1         1 CKY       0.074700
     66 H26          4.4250     1.6110    -1.4930 h1         1 CKY       0.074700
     67 H27          3.8860    -2.1280    -3.3090 h1         1 CKY       0.093700
     68 H28          2.7020    -1.4590    -5.2970 hc         1 CKY       0.043700
     69 H29          1.5440    -1.8880    -4.0380 hc         1 CKY       0.043700
     70 H30          1.8200    -0.1870    -4.4510 hc         1 CKY       0.043700
     71 H31          1.2350     0.1950    -0.0190 hc         1 CKY       0.060200
     72 H32          2.6830     1.1280     0.3480 hc         1 CKY       0.060200
     73 H33         -4.0800     0.2670     1.1000 hc         1 CKY       0.080700
     74 H34          3.3980     1.4510    -4.2660 hn         1 CKY       0.411000
     75 N19         -0.6460     1.3260     1.8390 ns         1 CKY      -0.178000
     76 O            4.8720    -0.4600    -0.1860 o          1 CKY      -0.543000
     77 O5           4.3680    -2.7940    -1.0810 o          1 CKY      -0.543000
     78 H14         -3.7590     1.7790    -0.6760 ha         1 CKY       0.120000
@<TRIPOS>BOND
     1     1    30 1   
     2     1    33 1   
     3     1    35 1   
     4     1    42 1   
     5     2    12 ar  
     6     2    28 ar  
     7     2    43 1   
     8     3     4 ar  
     9     3    12 ar  
    10     3    44 1   
    11     4     5 ar  
    12     4    45 1   
    13     5    28 ar  
    14     5    46 1   
    15     6     7 1   
    16     6    33 1   
    17     6    47 1   
    18     6    48 1   
    19     7     9 ar  
    20     7    25 ar  
    21     8    13 ar  
    22     8    25 ar  
    23     8    49 1   
    24     9    18 ar  
    25     9    40 1   
    26    10    11 1   
    27    10    37 2   
    28    10    75 1   
    29    11    34 1   
    30    11    51 1   
    31    11    52 1   
    32    12    53 1   
    33    13    18 ar  
    34    13    54 1   
    35    14    19 ar  
    36    14    23 ar  
    37    14    78 1   
    38    15    20 ar  
    39    15    23 ar  
    40    15    55 1   
    41    16    21 ar  
    42    16    24 ar  
    43    16    56 1   
    44    17    22 ar  
    45    17    24 ar  
    46    17    57 1   
    47    18    58 1   
    48    19    26 ar  
    49    19    59 1   
    50    20    26 ar  
    51    20    60 1   
    52    21    27 ar  
    53    21    61 1   
    54    22    27 ar  
    55    22    62 1   
    56    23    34 1   
    57    24    34 1   
    58    25    75 1   
    59    26    38 1   
    60    27    39 1   
    61    28    41 1   
    62    29    31 1   
    63    29    36 1   
    64    29    63 1   
    65    29    64 1   
    66    30    36 1   
    67    30    65 1   
    68    30    66 1   
    69    31    32 1   
    70    31    35 1   
    71    31    67 1   
    72    32    68 1   
    73    32    69 1   
    74    32    70 1   
    75    33    71 1   
    76    33    72 1   
    77    34    73 1   
    78    35    41 1   
    79    36    74 1   
    80    41    76 2   
    81    41    77 2   
    82    50    75 1   
@<TRIPOS>SUBSTRUCTURE
     1 CKY         1 TEMP              0 ****  ****    0 ROOT
