@<TRIPOS>MOLECULE
CKY
   78    82     1     0     0
SMALL
abcg2


@<TRIPOS>ATOM
      1 C2           2.6720     0.8200    -1.5210 c6         1 CKY       0.185500
      2 C7           1.4280    -3.0450    -0.4570 ca         1 CKY      -0.014500
      3 C9           0.0330    -3.3480     1.4790 ca         1 CKY      -0.062000
      4 C10          0.8400    -2.4820     2.2040 ca         1 CKY      -0.139000
      5 C11          1.9490    -1.8950     1.6080 ca         1 CKY      -0.014500
      6 C12          1.0890     2.3480    -0.2610 c3         1 CKY      -0.020100
      7 C13          1.0440     3.0920     1.0440 ca         1 CKY      -0.096300
      8 C15          0.3830     3.2820     3.3760 ca         1 CKY      -0.128000
      9 C18          1.7460     4.2770     1.2230 ca         1 CKY       0.177000
     10 C20         -1.6610     1.3590     1.6880 c          1 CKY       0.603100
     11 C22         -2.3360     0.0110     1.8160 c3         1 CKY      -0.156400
     12 C8           0.3280    -3.6290     0.1490 ca         1 CKY      -0.139000
     13 C16          1.0980     4.4620     3.5040 ca         1 CKY      -0.077000
     14 C26         -3.2840     0.4110    -1.7720 ca         1 CKY      -0.078750
     15 C30         -1.2950    -0.5760    -0.8950 ca         1 CKY      -0.078750
     16 C31         -5.0740    -1.6730     1.6980 ca         1 CKY      -0.078750
     17 C35         -3.5010    -2.7840     0.2840 ca         1 CKY      -0.078750
     18 C17          1.7880     4.9720     2.4160 ca         1 CKY      -0.143000
     19 C27         -2.6900     0.5320    -3.0200 ca         1 CKY      -0.152750
     20 C29         -0.6810    -0.4700    -2.1340 ca         1 CKY      -0.152750
     21 C32         -5.7030    -2.8770     1.9720 ca         1 CKY      -0.152750
     22 C34         -4.1150    -4.0030     0.5450 ca         1 CKY      -0.152750
     23 C25         -2.6010    -0.1410    -0.6920 ca         1 CKY      -0.094300
     24 C24         -3.9650    -1.6050     0.8560 ca         1 CKY      -0.094300
     25 C14          0.3610     2.6070     2.1630 ca         1 CKY      -0.023000
     26 C28         -1.3910     0.0870    -3.1770 ca         1 CKY       0.170500
     27 C33         -5.2060    -4.0270     1.3890 ca         1 CKY       0.170500
     28 C6           2.2240    -2.1760     0.2790 ca         1 CKY      -0.259500
     29 C            4.8150     0.1770    -3.3180 c6         1 CKY       0.130800
     30 C1           3.8580     1.7520    -1.7820 c6         1 CKY       0.123800
     31 C38          3.6640    -0.8070    -3.0940 c6         1 CKY       0.181500
     32 C39          2.5820    -0.7350    -4.1610 c3         1 CKY      -0.092100
     33 C4           2.0030     1.1110    -0.1800 c3         1 CKY      -0.093400
     34 C23         -3.2870    -0.2640     0.6470 c3         1 CKY       0.049900
     35 N3           3.0810    -0.5880    -1.7460 n3         1 CKY      -0.769500
     36 N            4.4740     1.5660    -3.0810 n7         1 CKY      -0.843400
     37 O21         -2.2450     2.3450     1.2770 o          1 CKY      -0.576100
     38 F37         -0.8050     0.2040    -4.3800 f          1 CKY      -0.179500
     39 F36         -5.8100    -5.2000     1.6450 f          1 CKY      -0.179500
     40 F            2.4340     4.7810     0.1820 f          1 CKY      -0.179000
     41 S            3.6740    -1.4970    -0.4970 sy         1 CKY       1.157600
     42 H1           1.9180     1.0020    -2.2950 h1         1 CKY       0.061700
     43 H2           1.6510    -3.2620    -1.4940 ha         1 CKY       0.135500
     44 H3          -0.8290    -3.8020     1.9500 ha         1 CKY       0.120000
     45 H4           0.6160    -2.2690     3.2410 ha         1 CKY       0.118500
     46 H5           2.5790    -1.2240     2.1760 ha         1 CKY       0.135500
     47 H6           0.0860     2.0320    -0.5510 hc         1 CKY       0.064700
     48 H7           1.4270     3.0200    -1.0500 hc         1 CKY       0.064700
     49 H8          -0.1610     2.8750     4.2180 ha         1 CKY       0.121000
     50 H9           0.0400     0.5700     2.4980 hn         1 CKY       0.155000
     51 H10         -1.6060    -0.7950     1.9230 hc         1 CKY       0.063200
     52 H11         -2.9090     0.0180     2.7480 hc         1 CKY       0.063200
     53 H12         -0.2990    -4.3030    -0.4190 ha         1 CKY       0.118500
     54 H13          1.1200     4.9870     4.4490 ha         1 CKY       0.123000
     55 H15         -0.7320    -1.0220    -0.0850 ha         1 CKY       0.120000
     56 H16         -5.4600    -0.7670     2.1500 ha         1 CKY       0.120000
     57 H17         -2.6570    -2.7690    -0.3920 ha         1 CKY       0.120000
     58 H18          2.3540     5.8920     2.4890 ha         1 CKY       0.136000
     59 H19         -3.2260     0.9680    -3.8520 ha         1 CKY       0.135250
     60 H20          0.3330    -0.8190    -2.2770 ha         1 CKY       0.135250
     61 H21         -6.5660    -2.9180     2.6240 ha         1 CKY       0.135250
     62 H22         -3.7490    -4.9160     0.0920 ha         1 CKY       0.135250
     63 H23          5.6390    -0.0960    -2.6490 h1         1 CKY       0.065200
     64 H24          5.1920     0.0710    -4.3380 h1         1 CKY       0.065200
     65 H25          3.5350     2.7910    -1.6910 h1         1 CKY       0.074700
     66 H26          4.6100     1.5860    -1.0040 h1         1 CKY       0.074700
     67 H27          4.0720    -1.8150    -3.1240 h1         1 CKY       0.093700
     68 H28          3.0270    -0.9400    -5.1350 hc         1 CKY       0.043700
     69 H29          1.8160    -1.4900    -3.9850 hc         1 CKY       0.043700
     70 H30          2.0920     0.2360    -4.2280 hc         1 CKY       0.043700
     71 H31          1.3950     0.2650     0.1350 hc         1 CKY       0.060200
     72 H32          2.7610     1.2610     0.5890 hc         1 CKY       0.060200
     73 H33         -4.0700     0.4980     0.6790 hc         1 CKY       0.080700
     74 H34          3.8500     1.8990    -3.8050 hn         1 CKY       0.411000
     75 N19         -0.3630     1.3910     2.0710 ns         1 CKY      -0.178000
     76 O            4.3630    -0.6770     0.4900 o          1 CKY      -0.543000
     77 O5           4.3940    -2.6220    -1.0790 o          1 CKY      -0.543000
     78 H14         -4.3010     0.7600    -1.6400 ha         1 CKY       0.120000
@<TRIPOS>BOND
     1     1    30 1   
     2     1    33 1   
     3     1    35 1   
     4     1    42 1   
     5     2    12 ar  
     6     2    28 ar  
     7     2    43 1   
     8     3     4 ar  
     9     3    12 ar  
    10     3    44 1   
    11     4     5 ar  
    12     4    45 1   
    13     5    28 ar  
    14     5    46 1   
    15     6     7 1   
    16     6    33 1   
    17     6    47 1   
    18     6    48 1   
    19     7     9 ar  
    20     7    25 ar  
    21     8    13 ar  
    22     8    25 ar  
    23     8    49 1   
    24     9    18 ar  
    25     9    40 1   
    26    10    11 1   
    27    10    37 2   
    28    10    75 1   
    29    11    34 1   
    30    11    51 1   
    31    11    52 1   
    32    12    53 1   
    33    13    18 ar  
    34    13    54 1   
    35    14    19 ar  
    36    14    23 ar  
    37    14    78 1   
    38    15    20 ar  
    39    15    23 ar  
    40    15    55 1   
    41    16    21 ar  
    42    16    24 ar  
    43    16    56 1   
    44    17    22 ar  
    45    17    24 ar  
    46    17    57 1   
    47    18    58 1   
    48    19    26 ar  
    49    19    59 1   
    50    20    26 ar  
    51    20    60 1   
    52    21    27 ar  
    53    21    61 1   
    54    22    27 ar  
    55    22    62 1   
    56    23    34 1   
    57    24    34 1   
    58    25    75 1   
    59    26    38 1   
    60    27    39 1   
    61    28    41 1   
    62    29    31 1   
    63    29    36 1   
    64    29    63 1   
    65    29    64 1   
    66    30    36 1   
    67    30    65 1   
    68    30    66 1   
    69    31    32 1   
    70    31    35 1   
    71    31    67 1   
    72    32    68 1   
    73    32    69 1   
    74    32    70 1   
    75    33    71 1   
    76    33    72 1   
    77    34    73 1   
    78    35    41 1   
    79    36    74 1   
    80    41    76 2   
    81    41    77 2   
    82    50    75 1   
@<TRIPOS>SUBSTRUCTURE
     1 CKY         1 TEMP              0 ****  ****    0 ROOT
