@<TRIPOS>MOLECULE
CKZ
   50    54     1     0     0
SMALL
No Charge or Current Charge


@<TRIPOS>ATOM
      1 O5          -3.4930    -0.3390     0.8550 os         1 CKZ      -0.412000
      2 C5          -4.8550    -0.7640     1.1250 c6         1 CKZ       0.168300
      3 C4          -5.7110    -0.6090    -0.1690 c6         1 CKZ       0.140300
      4 C3          -5.6370     0.8660    -0.6530 c6         1 CKZ       0.097300
      5 C2          -4.1580     1.3090    -0.8590 c6         1 CKZ       0.116300
      6 C1          -3.3500     1.0540     0.4600 c6         1 CKZ       0.156000
      7 C20         -1.8830     1.4130     0.2740 cc         1 CKZ       0.392800
      8 O2          -4.1390     2.6970    -1.2700 oh         1 CKZ      -0.720000
      9 O3          -6.3840     1.0410    -1.8690 oh         1 CKZ      -0.666000
     10 O4          -7.0880    -0.9710     0.0360 oh         1 CKZ      -0.718000
     11 C6          -4.8160    -2.2380     1.6440 c3         1 CKZ       0.172600
     12 O6          -3.9660    -2.4170     2.7960 oh         1 CKZ      -0.712000
     13 N5          -0.8500     0.5140     0.3220 na         1 CKZ      -0.480000
     14 C19          0.3020     1.2110     0.1020 cc         1 CKZ       0.447000
     15 N3          -0.0060     2.4840    -0.0770 nd         1 CKZ      -0.361000
     16 N2          -1.3710     2.6110     0.0320 nd         1 CKZ      -0.336000
     17 C21          1.6510     0.6280     0.0710 ca         1 CKZ      -0.125500
     18 C11          1.8500    -0.7660     0.2780 ca         1 CKZ      -0.106000
     19 C10          3.1430    -1.3310     0.2490 ca         1 CKZ      -0.088000
     20 C9           4.2470    -0.4930     0.0110 cp         1 CKZ      -0.025000
     21 C8           4.0480     0.8730    -0.1900 ca         1 CKZ      -0.088300
     22 C7           2.7760     1.4580    -0.1670 ca         1 CKZ      -0.052000
     23 C14          5.6720    -0.8190    -0.0680 cp         1 CKZ      -0.047000
     24 C13          6.4210     0.3320    -0.3230 ca         1 CKZ      -0.079300
     25 C12          5.4300     1.5000    -0.4200 c5         1 CKZ       0.007200
     26 C18          6.3220    -2.0620     0.0720 ca         1 CKZ      -0.081000
     27 C17          7.7270    -2.1120    -0.0500 ca         1 CKZ      -0.115000
     28 C16          8.4690    -0.9350    -0.3080 ca         1 CKZ      -0.103000
     29 C15          7.8150     0.3070    -0.4480 ca         1 CKZ      -0.098000
     30 H1          -5.2730    -0.1300     1.9210 h1         1 CKZ       0.058700
     31 H2          -5.2690    -1.2500    -0.9480 h1         1 CKZ       0.061700
     32 H3          -6.0670     1.5030     0.1350 h1         1 CKZ       0.051700
     33 H4          -3.7150     0.6780    -1.6460 h1         1 CKZ       0.081700
     34 H5          -3.7690     1.6780     1.2620 h1         1 CKZ       0.045700
     35 H6          -3.1960     2.9910    -1.2980 ho         1 CKZ       0.517000
     36 H7          -6.0520     1.8900    -2.2450 ho         1 CKZ       0.453000
     37 H8          -7.5720    -0.5140    -0.6950 ho         1 CKZ       0.522000
     38 H9          -5.8430    -2.5440     1.8860 h1         1 CKZ       0.039200
     39 H10         -4.4730    -2.8790     0.8200 h1         1 CKZ       0.039200
     40 H11         -3.9760    -3.3780     3.0160 ho         1 CKZ       0.506000
     41 H12         -0.9350    -0.4750     0.4990 hn         1 CKZ       0.363000
     42 H13          1.0030    -1.4230     0.4620 ha         1 CKZ       0.103000
     43 H14          3.2820    -2.3970     0.4080 ha         1 CKZ       0.119000
     44 H15          2.6670     2.5280    -0.3300 ha         1 CKZ       0.144000
     45 H16          5.4870     1.9900    -1.3980 hc         1 CKZ       0.075700
     46 H17          5.6470     2.2690     0.3290 hc         1 CKZ       0.075700
     47 H18          5.7520    -2.9660     0.2710 ha         1 CKZ       0.116000
     48 H19          8.2440    -3.0630     0.0560 ha         1 CKZ       0.113000
     49 H20          9.5520    -0.9880    -0.4000 ha         1 CKZ       0.113000
     50 H21          8.3770     1.2170    -0.6470 ha         1 CKZ       0.116000
@<TRIPOS>BOND
     1     1     2 1   
     2     1     6 1   
     3     2     3 1   
     4     2    11 1   
     5     2    30 1   
     6     3     4 1   
     7     3    10 1   
     8     3    31 1   
     9     4     5 1   
    10     4     9 1   
    11     4    32 1   
    12     5     6 1   
    13     5     8 1   
    14     5    33 1   
    15     6     7 1   
    16     6    34 1   
    17     7    13 1   
    18     7    16 2   
    19     8    35 1   
    20     9    36 1   
    21    10    37 1   
    22    11    12 1   
    23    11    38 1   
    24    11    39 1   
    25    12    40 1   
    26    13    14 1   
    27    13    41 1   
    28    14    15 2   
    29    14    17 1   
    30    15    16 1   
    31    17    18 ar  
    32    17    22 ar  
    33    18    19 ar  
    34    18    42 1   
    35    19    20 ar  
    36    19    43 1   
    37    20    21 ar  
    38    20    23 1   
    39    21    22 ar  
    40    21    25 1   
    41    22    44 1   
    42    23    24 ar  
    43    23    26 ar  
    44    24    25 1   
    45    24    29 ar  
    46    25    45 1   
    47    25    46 1   
    48    26    27 ar  
    49    26    47 1   
    50    27    28 ar  
    51    27    48 1   
    52    28    29 ar  
    53    28    49 1   
    54    29    50 1   
@<TRIPOS>SUBSTRUCTURE
     1 CKZ         1 TEMP              0 ****  ****    0 ROOT
