@<TRIPOS>MOLECULE
CKZ
   50    54     1     0     0
SMALL
abcg2


@<TRIPOS>ATOM
      1 O5          -3.8740    -0.9330    -0.4030 os         1 CKZ      -0.412000
      2 C5          -5.1730    -1.1510     0.1140 c6         1 CKZ       0.168300
      3 C4          -6.0060     0.1260    -0.0170 c6         1 CKZ       0.140300
      4 C3          -5.2870     1.2840     0.6680 c6         1 CKZ       0.097300
      5 C2          -3.8660     1.4150     0.1300 c6         1 CKZ       0.116300
      6 C1          -3.1630     0.0660     0.2800 c6         1 CKZ       0.156000
      7 C20         -1.7850     0.1160    -0.2860 cc         1 CKZ       0.392800
      8 O2          -3.1070     2.3590     0.8420 oh         1 CKZ      -0.720000
      9 O3          -6.0390     2.4560     0.4400 oh         1 CKZ      -0.666000
     10 O4          -7.2640    -0.1090     0.5650 oh         1 CKZ      -0.718000
     11 C6          -5.7830    -2.3040    -0.6530 c3         1 CKZ       0.172600
     12 O6          -5.0220    -3.4630    -0.4120 oh         1 CKZ      -0.712000
     13 N5          -0.6580     0.0040     0.4480 na         1 CKZ      -0.480000
     14 C19          0.3670     0.1140    -0.4300 cc         1 CKZ       0.447000
     15 N3          -0.1250     0.2820    -1.6320 nd         1 CKZ      -0.361000
     16 N2          -1.4720     0.2850    -1.5390 nd         1 CKZ      -0.336000
     17 C21          1.7840     0.0580    -0.0900 ca         1 CKZ      -0.125500
     18 C11          2.2080     0.0040     1.2410 ca         1 CKZ      -0.106000
     19 C10          3.5570    -0.0440     1.5590 ca         1 CKZ      -0.088000
     20 C9           4.4890    -0.0370     0.5310 cp         1 CKZ      -0.025000
     21 C8           4.0700     0.0170    -0.8050 ca         1 CKZ      -0.088300
     22 C7           2.7290     0.0640    -1.1210 ca         1 CKZ      -0.052000
     23 C14          5.9470    -0.0770     0.5580 cp         1 CKZ      -0.047000
     24 C13          6.4130    -0.0490    -0.7620 ca         1 CKZ      -0.079300
     25 C12          5.2590     0.0090    -1.7240 c5         1 CKZ       0.007200
     26 C18          6.8340    -0.1330     1.6260 ca         1 CKZ      -0.081000
     27 C17          8.1960    -0.1610     1.3560 ca         1 CKZ      -0.115000
     28 C16          8.6610    -0.1330     0.0440 ca         1 CKZ      -0.103000
     29 C15          7.7710    -0.0770    -1.0250 ca         1 CKZ      -0.098000
     30 H1          -5.1100    -1.4210     1.1810 h1         1 CKZ       0.058700
     31 H2          -6.1050     0.3640    -1.0880 h1         1 CKZ       0.061700
     32 H3          -5.2280     1.0630     1.7440 h1         1 CKZ       0.051700
     33 H4          -3.9090     1.6600    -0.9400 h1         1 CKZ       0.081700
     34 H5          -3.0900    -0.1700     1.3540 h1         1 CKZ       0.045700
     35 H6          -3.3700     3.2410     0.5650 ho         1 CKZ       0.517000
     36 H7          -5.9650     3.0330     1.2060 ho         1 CKZ       0.453000
     37 H8          -7.7560     0.7190     0.5530 ho         1 CKZ       0.522000
     38 H9          -6.8210    -2.4260    -0.3260 h1         1 CKZ       0.039200
     39 H10         -5.8080    -2.0470    -1.7210 h1         1 CKZ       0.039200
     40 H11         -5.4000    -4.1790    -0.9300 ho         1 CKZ       0.506000
     41 H12         -0.6070    -0.1500     1.4430 hn         1 CKZ       0.363000
     42 H13          1.4890     0.0040     2.0500 ha         1 CKZ       0.103000
     43 H14          3.8640    -0.0840     2.5970 ha         1 CKZ       0.119000
     44 H15          2.4030     0.1050    -2.1530 ha         1 CKZ       0.144000
     45 H16          5.2450    -0.8520    -2.3980 hc         1 CKZ       0.075700
     46 H17          5.2940     0.8990    -2.3580 hc         1 CKZ       0.075700
     47 H18          6.4780    -0.1540     2.6490 ha         1 CKZ       0.116000
     48 H19          8.9040    -0.2040     2.1730 ha         1 CKZ       0.113000
     49 H20          9.7260    -0.1540    -0.1450 ha         1 CKZ       0.113000
     50 H21          8.1410    -0.0550    -2.0430 ha         1 CKZ       0.116000
@<TRIPOS>BOND
     1     1     2 1   
     2     1     6 1   
     3     2     3 1   
     4     2    11 1   
     5     2    30 1   
     6     3     4 1   
     7     3    10 1   
     8     3    31 1   
     9     4     5 1   
    10     4     9 1   
    11     4    32 1   
    12     5     6 1   
    13     5     8 1   
    14     5    33 1   
    15     6     7 1   
    16     6    34 1   
    17     7    13 1   
    18     7    16 2   
    19     8    35 1   
    20     9    36 1   
    21    10    37 1   
    22    11    12 1   
    23    11    38 1   
    24    11    39 1   
    25    12    40 1   
    26    13    14 1   
    27    13    41 1   
    28    14    15 2   
    29    14    17 1   
    30    15    16 1   
    31    17    18 ar  
    32    17    22 ar  
    33    18    19 ar  
    34    18    42 1   
    35    19    20 ar  
    36    19    43 1   
    37    20    21 ar  
    38    20    23 1   
    39    21    22 ar  
    40    21    25 1   
    41    22    44 1   
    42    23    24 ar  
    43    23    26 ar  
    44    24    25 1   
    45    24    29 ar  
    46    25    45 1   
    47    25    46 1   
    48    26    27 ar  
    49    26    47 1   
    50    27    28 ar  
    51    27    48 1   
    52    28    29 ar  
    53    28    49 1   
    54    29    50 1   
@<TRIPOS>SUBSTRUCTURE
     1 CKZ         1 TEMP              0 ****  ****    0 ROOT
