@<TRIPOS>MOLECULE
CL3
   43    46     1     0     0
SMALL
abcg2


@<TRIPOS>ATOM
      1 O32         -1.2810    -2.0060     4.6510 o          1 CL3      -0.585100
      2 N1           0.3160    -0.0080    -1.8710 nc         1 CL3      -0.462800
      3 N2           1.3260    -0.2200    -1.0330 na         1 CL3       0.137000
      4 C3           2.6020    -0.5840    -1.3800 cc         1 CL3      -0.155000
      5 C4           2.8860    -0.7480    -2.7520 cc         1 CL3      -0.020000
      6 C5           1.8720    -0.5350    -3.6230 cd         1 CL3      -0.149000
      7 C6           0.5750    -0.1600    -3.1360 cd         1 CL3       0.389500
      8 C7           1.3260    -0.1390     0.3280 cc         1 CL3       0.417400
      9 N8           2.5360    -0.4400     0.7460 nd         1 CL3      -0.368700
     10 N9           3.3290    -0.7150    -0.2950 nd         1 CL3      -0.064000
     11 C10         -0.5510     0.0570    -4.0630 ca         1 CL3      -0.160500
     12 C11          0.2130     0.2060     1.2060 ca         1 CL3      -0.099900
     13 C12          0.3740    -0.0330     2.5730 ca         1 CL3      -0.059000
     14 C13         -0.6320     0.2880     3.4670 ca         1 CL3      -0.056000
     15 C14         -1.8140     0.8600     3.0140 ca         1 CL3      -0.085000
     16 C15         -1.9790     1.1000     1.6600 ca         1 CL3      -0.117000
     17 C16         -0.9780     0.7770     0.7540 ca         1 CL3      -0.078000
     18 C17         -0.3250     0.4900    -5.3690 ca         1 CL3      -0.077500
     19 C18         -1.3890     0.7100    -6.2300 ca         1 CL3      -0.115500
     20 C19         -2.6910     0.4950    -5.8000 ca         1 CL3      -0.089000
     21 C20         -2.9240     0.0610    -4.5000 ca         1 CL3      -0.115500
     22 C21         -1.8640    -0.1530    -3.6350 ca         1 CL3      -0.077500
     23 N22         -0.4340     0.0620     4.8560 n          1 CL3      -0.255400
     24 C23          0.1180     1.1750     5.6060 c3         1 CL3       0.100300
     25 C27         -0.8080    -1.1380     5.3690 c          1 CL3       0.609100
     26 C28         -0.6120    -1.3530     6.8490 c3         1 CL3      -0.174100
     27 H5           2.0290    -0.6690    -4.6830 ha         1 CL3       0.139000
     28 H12          1.2900    -0.4740     2.9440 ha         1 CL3       0.145000
     29 H14         -2.5980     1.1100     3.7180 ha         1 CL3       0.121000
     30 H15         -2.8970     1.5440     1.2990 ha         1 CL3       0.117000
     31 H16         -1.1330     0.9740    -0.2950 ha         1 CL3       0.134000
     32 H17          0.6810     0.6810    -5.7200 ha         1 CL3       0.123000
     33 H18         -1.1980     1.0540    -7.2380 ha         1 CL3       0.119000
     34 H19         -3.5210     0.6620    -6.4740 ha         1 CL3       0.118000
     35 H20         -3.9360    -0.1140    -4.1600 ha         1 CL3       0.119000
     36 H21         -2.0550    -0.4990    -2.6280 ha         1 CL3       0.123000
     37 H231         0.3500     0.8840     6.6250 h1         1 CL3       0.040367
     38 H232         1.0400     1.5190     5.1380 h1         1 CL3       0.040367
     39 H233        -0.5830     2.0110     5.6410 h1         1 CL3       0.040367
     40 H281        -0.9860    -2.3370     7.1150 hc         1 CL3       0.061033
     41 H282         0.4430    -1.3000     7.1240 hc         1 CL3       0.061033
     42 H283        -1.1420    -0.6080     7.4420 hc         1 CL3       0.061033
     43 H4           3.8750    -1.0450    -3.0690 ha         1 CL3       0.153000
@<TRIPOS>BOND
     1     1    25 2   
     2     2     3 1   
     3     2     7 2   
     4     3     4 1   
     5     3     8 1   
     6     4     5 1   
     7     4    10 2   
     8     5     6 2   
     9     5    43 1   
    10     6     7 1   
    11     6    27 1   
    12     7    11 1   
    13     8     9 2   
    14     8    12 1   
    15     9    10 1   
    16    11    18 ar  
    17    11    22 ar  
    18    12    13 ar  
    19    12    17 ar  
    20    13    14 ar  
    21    13    28 1   
    22    14    15 ar  
    23    14    23 1   
    24    15    16 ar  
    25    15    29 1   
    26    16    17 ar  
    27    16    30 1   
    28    17    31 1   
    29    18    19 ar  
    30    18    32 1   
    31    19    20 ar  
    32    19    33 1   
    33    20    21 ar  
    34    20    34 1   
    35    21    22 ar  
    36    21    35 1   
    37    22    36 1   
    38    23    24 1   
    39    23    25 1   
    40    24    37 1   
    41    24    38 1   
    42    24    39 1   
    43    25    26 1   
    44    26    40 1   
    45    26    41 1   
    46    26    42 1   
@<TRIPOS>SUBSTRUCTURE
     1 CL3         1 TEMP              0 ****  ****    0 ROOT
