@<TRIPOS>MOLECULE
CL3
   43    46     1     0     0
SMALL
No Charge or Current Charge


@<TRIPOS>ATOM
      1 O32         -0.3440    -2.1180     4.3250 o          1 CL3      -0.585100
      2 N1           0.3240    -0.0470    -1.8620 nc         1 CL3      -0.462800
      3 N2           1.4350    -0.2640    -1.0580 na         1 CL3       0.137000
      4 C3           2.6150    -0.7990    -1.4720 cc         1 CL3      -0.155000
      5 C4           2.8210    -1.1110    -2.8380 cc         1 CL3      -0.020000
      6 C5           1.7750    -0.8710    -3.6940 cd         1 CL3      -0.149000
      7 C6           0.5370    -0.3350    -3.1600 cd         1 CL3       0.389500
      8 C7           1.4970    -0.0910     0.3120 cc         1 CL3       0.417400
      9 N8           2.7010    -0.5160     0.6940 nd         1 CL3      -0.368700
     10 N9           3.4030    -0.9480    -0.4250 nd         1 CL3      -0.064000
     11 C10         -0.6120    -0.0910    -4.0640 ca         1 CL3      -0.160500
     12 C11          0.4590     0.4430     1.2160 ca         1 CL3      -0.099900
     13 C12          0.4850     0.0900     2.5850 ca         1 CL3      -0.059000
     14 C13         -0.4290     0.6380     3.5130 ca         1 CL3      -0.056000
     15 C14         -1.4570     1.4690     3.0230 ca         1 CL3      -0.085000
     16 C15         -1.4800     1.8570     1.6750 ca         1 CL3      -0.117000
     17 C16         -0.5160     1.3680     0.7810 ca         1 CL3      -0.078000
     18 C17         -0.4000     0.3700    -5.3840 ca         1 CL3      -0.077500
     19 C18         -1.4880     0.6400    -6.2330 ca         1 CL3      -0.115500
     20 C19         -2.8020     0.4690    -5.7720 ca         1 CL3      -0.089000
     21 C20         -3.0290     0.0360    -4.4570 ca         1 CL3      -0.115500
     22 C21         -1.9430    -0.2340    -3.6050 ca         1 CL3      -0.077500
     23 N22         -0.5020     0.1310     4.8660 n          1 CL3      -0.255400
     24 C23         -0.8710     1.0920     5.9350 c3         1 CL3       0.100300
     25 C27         -0.4030    -1.2540     5.1920 c          1 CL3       0.609100
     26 C28         -0.3450    -1.6750     6.6670 c3         1 CL3      -0.174100
     27 H5           1.8720    -1.1060    -4.7470 ha         1 CL3       0.139000
     28 H12          1.2410    -0.6080     2.9380 ha         1 CL3       0.145000
     29 H14         -2.2400     1.8300     3.6860 ha         1 CL3       0.121000
     30 H15         -2.2520     2.5360     1.3200 ha         1 CL3       0.117000
     31 H16         -0.5430     1.7120    -0.2500 ha         1 CL3       0.134000
     32 H17          0.6080     0.5340    -5.7590 ha         1 CL3       0.123000
     33 H18         -1.3100     0.9900    -7.2480 ha         1 CL3       0.119000
     34 H19         -3.6430     0.6800    -6.4300 ha         1 CL3       0.118000
     35 H20         -4.0470    -0.0900    -4.0940 ha         1 CL3       0.119000
     36 H21         -2.1450    -0.5690    -2.5890 ha         1 CL3       0.123000
     37 H231        -0.1620     1.0250     6.7690 h1         1 CL3       0.040367
     38 H232        -0.8390     2.1200     5.5530 h1         1 CL3       0.040367
     39 H233        -1.8850     0.8770     6.2960 h1         1 CL3       0.040367
     40 H281        -0.2310    -2.7580     6.7880 hc         1 CL3       0.061033
     41 H282         0.4660    -1.1330     7.1660 hc         1 CL3       0.061033
     42 H283        -1.2380    -1.3130     7.1880 hc         1 CL3       0.061033
     43 H4           3.7640    -1.5330    -3.1750 ha         1 CL3       0.153000
@<TRIPOS>BOND
     1     1    25 2   
     2     2     3 1   
     3     2     7 2   
     4     3     4 1   
     5     3     8 1   
     6     4     5 1   
     7     4    10 2   
     8     5     6 2   
     9     5    43 1   
    10     6     7 1   
    11     6    27 1   
    12     7    11 1   
    13     8     9 2   
    14     8    12 1   
    15     9    10 1   
    16    11    18 ar  
    17    11    22 ar  
    18    12    13 ar  
    19    12    17 ar  
    20    13    14 ar  
    21    13    28 1   
    22    14    15 ar  
    23    14    23 1   
    24    15    16 ar  
    25    15    29 1   
    26    16    17 ar  
    27    16    30 1   
    28    17    31 1   
    29    18    19 ar  
    30    18    32 1   
    31    19    20 ar  
    32    19    33 1   
    33    20    21 ar  
    34    20    34 1   
    35    21    22 ar  
    36    21    35 1   
    37    22    36 1   
    38    23    24 1   
    39    23    25 1   
    40    24    37 1   
    41    24    38 1   
    42    24    39 1   
    43    25    26 1   
    44    26    40 1   
    45    26    41 1   
    46    26    42 1   
@<TRIPOS>SUBSTRUCTURE
     1 CL3         1 TEMP              0 ****  ****    0 ROOT
