@<TRIPOS>MOLECULE
CL4
   53    56     1     0     0
SMALL
bcc


@<TRIPOS>ATOM
      1 C1           0.6630    -2.5210    -0.9390 c2         1 CL4      -0.167200
      2 C2          -0.7680    -2.3780    -1.3470 c3         1 CL4       0.132200
      3 N3          -1.2900    -1.0840    -0.9220 ns         1 CL4      -0.532900
      4 C4           1.0620    -3.4090    -0.0370 c2         1 CL4      -0.185200
      5 C5           2.4560    -3.6130     0.4680 c5         1 CL4       0.167300
      6 O6           3.3920    -2.7300    -0.1240 os         1 CL4      -0.370600
      7 C7           2.5270    -3.3820     1.9980 c5         1 CL4       0.071100
      8 O8           2.7840    -4.5890     2.6620 oh         1 CL4      -0.582800
      9 C9           3.6800    -2.3640     2.1570 c5         1 CL4       0.085100
     10 O10          4.8930    -3.0260     2.3680 oh         1 CL4      -0.576800
     11 C11          3.7470    -1.7220     0.7750 c5         1 CL4       0.247800
     12 N12          2.8780    -0.5660     0.6290 na         1 CL4      -0.280000
     13 C13          1.6870    -0.2870     1.2400 cc         1 CL4       0.395700
     14 N14          1.0530     0.7180     0.7110 nd         1 CL4      -0.566100
     15 C15          1.8640     1.1320    -0.3170 ca         1 CL4      -0.236200
     16 C16          1.7680     2.1740    -1.2580 ca         1 CL4       0.772200
     17 N17          0.7370     3.0260    -1.2920 nv         1 CL4      -0.939500
     18 N18          2.7460     2.2900    -2.1610 nb         1 CL4      -0.820000
     19 C19          3.7690     1.4400    -2.1250 ca         1 CL4       0.712900
     20 N20          3.9790     0.4460    -1.2790 nb         1 CL4      -0.737000
     21 C21          2.9960     0.3390    -0.3920 ca         1 CL4       0.465800
     22 C22         -4.3240     0.9830    -1.2070 ca         1 CL4       0.183100
     23 C23         -4.9100     2.1800    -0.7410 ca         1 CL4       0.083100
     24 C24         -4.2170     2.9920     0.1220 ca         1 CL4      -0.064000
     25 C25         -2.9290     2.6220     0.5120 ca         1 CL4      -0.214200
     26 C26         -2.3320     1.4590     0.0770 ca         1 CL4      -0.027000
     27 C27         -3.0320     0.6200    -0.7880 ca         1 CL4      -0.252600
     28 O29         -5.0570     0.2570    -2.0310 oh         1 CL4      -0.531100
     29 C30         -2.4950    -0.6700    -1.3000 c          1 CL4       0.693700
     30 O31         -3.1870    -1.3540    -2.0740 o          1 CL4      -0.657100
     31 N32         -2.2050     3.4930     1.4080 no         1 CL4       0.318200
     32 O33         -1.0090     3.3270     1.5290 o          1 CL4      -0.213500
     33 O34         -2.8220     4.3490     1.9970 o          1 CL4      -0.213500
     34 HC1          1.3740    -1.8650    -1.4320 ha         1 CL4       0.152000
     35 HC21        -0.8570    -2.4540    -2.4320 h1         1 CL4       0.065200
     36 HC22        -1.3680    -3.1810    -0.9130 h1         1 CL4       0.065200
     37 HN3         -0.7430    -0.5530    -0.2600 hn         1 CL4       0.344500
     38 HC4          0.3280    -4.0670     0.4220 ha         1 CL4       0.128000
     39 HC5          2.7730    -4.6380     0.2450 h1         1 CL4       0.106700
     40 HC7          1.5910    -2.9470     2.3590 h1         1 CL4       0.049700
     41 HO8          2.4620    -4.5220     3.5680 ho         1 CL4       0.421000
     42 HC9          3.4840    -1.6310     2.9490 h1         1 CL4       0.071700
     43 H10          4.6810    -3.8920     2.7450 ho         1 CL4       0.432000
     44 H11          4.7550    -1.3830     0.5350 h2         1 CL4       0.143700
     45 H13          1.3250    -0.8480     2.0880 h5         1 CL4       0.059800
     46 H171         0.7920     3.8290    -1.8960 hn         1 CL4       0.449300
     47 H172         0.1250     3.0980    -0.4960 hn         1 CL4       0.449300
     48 H19          4.5270     1.5900    -2.8850 h5         1 CL4       0.051100
     49 H24         -4.6730     3.9080     0.4720 ha         1 CL4       0.185000
     50 H26         -1.3410     1.2090     0.4350 ha         1 CL4       0.184000
     51 H28         -6.5020     1.8880    -1.7540 ho         1 CL4       0.453000
     52 H29         -4.5030    -0.5500    -2.2570 ho         1 CL4       0.511000
     53 O28         -6.1430     2.5330    -1.1330 oh         1 CL4      -0.485100
@<TRIPOS>BOND
     1     1     2 1   
     2     1     4 2   
     3     1    34 1   
     4     2     3 1   
     5     2    35 1   
     6     2    36 1   
     7     3    29 1   
     8     3    37 1   
     9     4     5 1   
    10     4    38 1   
    11     5     6 1   
    12     5     7 1   
    13     5    39 1   
    14     6    11 1   
    15     7     8 1   
    16     7     9 1   
    17     7    40 1   
    18     8    41 1   
    19     9    10 1   
    20     9    11 1   
    21     9    42 1   
    22    10    43 1   
    23    11    12 1   
    24    11    44 1   
    25    12    13 1   
    26    12    21 1   
    27    13    14 2   
    28    13    45 1   
    29    14    15 1   
    30    15    16 ar  
    31    15    21 ar  
    32    16    17 1   
    33    16    18 ar  
    34    17    46 1   
    35    17    47 1   
    36    18    19 ar  
    37    19    20 ar  
    38    19    48 1   
    39    20    21 ar  
    40    22    23 ar  
    41    22    27 ar  
    42    22    28 1   
    43    23    24 ar  
    44    23    53 1   
    45    24    25 ar  
    46    24    49 1   
    47    25    26 ar  
    48    25    31 1   
    49    26    27 ar  
    50    26    50 1   
    51    27    29 1   
    52    28    52 1   
    53    29    30 2   
    54    31    32 1   
    55    31    33 1   
    56    51    53 1   
@<TRIPOS>SUBSTRUCTURE
     1 CL4         1 TEMP              0 ****  ****    0 ROOT
