@<TRIPOS>MOLECULE
CL4
   53    56     1     0     0
SMALL
No Charge or Current Charge


@<TRIPOS>ATOM
      1 C1           1.0470    -2.2470    -1.5670 c2         1 CL4      -0.217200
      2 C2           0.0350    -1.5620    -2.4580 c3         1 CL4       0.132200
      3 N3          -0.7510    -0.5940    -1.6900 ns         1 CL4      -0.465900
      4 C4           0.7840    -2.8040    -0.3680 c2         1 CL4      -0.235200
      5 C5           1.8950    -3.4460     0.4770 c5         1 CL4       0.190500
      6 O6           3.1460    -2.7660     0.2180 os         1 CL4      -0.417000
      7 C7           1.5870    -3.2270     2.0100 c5         1 CL4       0.094300
      8 O8           1.5230    -4.4580     2.7640 oh         1 CL4      -0.705000
      9 C9           2.7920    -2.3600     2.5110 c5         1 CL4       0.108300
     10 O10          3.7520    -3.2410     3.1060 oh         1 CL4      -0.699000
     11 C11          3.3000    -1.7050     1.1840 c5         1 CL4       0.300300
     12 N12          2.6320    -0.4900     0.6920 na         1 CL4      -0.309300
     13 C13          1.4780     0.1020     1.2180 cc         1 CL4       0.395700
     14 N14          1.0950     1.1670     0.4920 nd         1 CL4      -0.566100
     15 C15          2.0600     1.2340    -0.5160 ca         1 CL4      -0.105600
     16 C16          2.1850     2.1480    -1.5820 ca         1 CL4       0.443900
     17 N17          1.3130     3.1710    -1.7820 nv         1 CL4      -1.049900
     18 N18          3.1930     2.0530    -2.4640 nb         1 CL4      -0.294000
     19 C19          4.0660     1.0360    -2.2620 ca         1 CL4       0.186900
     20 N20          4.0240     0.1160    -1.2690 nb         1 CL4      -0.211000
     21 C21          2.9990     0.2410    -0.4030 ca         1 CL4       0.137500
     22 C22         -4.0290     0.1950    -0.0490 ca         1 CL4       0.183100
     23 C23         -4.6450     1.2150     0.7060 ca         1 CL4       0.083100
     24 C24         -3.9880     2.4360     0.9120 ca         1 CL4      -0.046000
     25 C25         -2.7080     2.6550     0.3530 ca         1 CL4      -0.214200
     26 C26         -2.0980     1.6280    -0.4060 ca         1 CL4      -0.009000
     27 C27         -2.7410     0.3810    -0.6010 ca         1 CL4      -0.252600
     28 O29         -4.6980    -0.9820    -0.2390 oh         1 CL4      -0.570100
     29 C30         -2.0860    -0.7300    -1.3890 c          1 CL4       0.626700
     30 O31         -2.7270    -1.7130    -1.7420 o          1 CL4      -0.657100
     31 N32         -2.0060     3.9630     0.5620 no         1 CL4       0.698200
     32 O33         -0.8880     4.1160     0.0510 o          1 CL4      -0.403500
     33 O34         -2.5770     4.8330     1.2310 o          1 CL4      -0.403500
     34 HC1          2.0590    -2.2430    -1.9770 ha         1 CL4       0.202000
     35 HC21         0.5520    -1.0270    -3.2660 h1         1 CL4       0.065200
     36 HC22        -0.6230    -2.3100    -2.9210 h1         1 CL4       0.065200
     37 HN3         -0.2630     0.1940    -1.2820 hn         1 CL4       0.344500
     38 HC4         -0.2400    -2.8000     0.0070 ha         1 CL4       0.178000
     39 HC5          2.0160    -4.5110     0.2310 h1         1 CL4       0.106700
     40 HC7          0.6520    -2.6630     2.1390 h1         1 CL4       0.049700
     41 HO8          0.6430    -4.8710     2.5860 ho         1 CL4       0.520000
     42 HC9          2.4720    -1.6020     3.2400 h1         1 CL4       0.071700
     43 H10          3.2060    -4.0680     3.2070 ho         1 CL4       0.531000
     44 H11          4.3590    -1.4340     1.2820 h2         1 CL4       0.143700
     45 H13          0.9690    -0.2800     2.0950 h5         1 CL4       0.059800
     46 H171         1.6060     3.9280    -2.3920 hn         1 CL4       0.504500
     47 H172         0.7080     3.4280    -1.0030 hn         1 CL4       0.504500
     48 H19          4.8870     0.9500    -2.9720 h5         1 CL4       0.051100
     49 H24         -4.4840     3.2060     1.5000 ha         1 CL4       0.167000
     50 H26         -1.1260     1.8130    -0.8560 ha         1 CL4       0.166000
     51 H28         -6.1600     0.1010     0.9750 ho         1 CL4       0.492000
     52 H29         -4.1170    -1.5160    -0.8520 ho         1 CL4       0.550000
     53 O28         -5.8890     1.0110     1.2380 oh         1 CL4      -0.524100
@<TRIPOS>BOND
     1     1     2 1   
     2     1     4 2   
     3     1    34 1   
     4     2     3 1   
     5     2    35 1   
     6     2    36 1   
     7     3    29 1   
     8     3    37 1   
     9     4     5 1   
    10     4    38 1   
    11     5     6 1   
    12     5     7 1   
    13     5    39 1   
    14     6    11 1   
    15     7     8 1   
    16     7     9 1   
    17     7    40 1   
    18     8    41 1   
    19     9    10 1   
    20     9    11 1   
    21     9    42 1   
    22    10    43 1   
    23    11    12 1   
    24    11    44 1   
    25    12    13 1   
    26    12    21 1   
    27    13    14 2   
    28    13    45 1   
    29    14    15 1   
    30    15    16 ar  
    31    15    21 ar  
    32    16    17 1   
    33    16    18 ar  
    34    17    46 1   
    35    17    47 1   
    36    18    19 ar  
    37    19    20 ar  
    38    19    48 1   
    39    20    21 ar  
    40    22    23 ar  
    41    22    27 ar  
    42    22    28 1   
    43    23    24 ar  
    44    23    53 1   
    45    24    25 ar  
    46    24    49 1   
    47    25    26 ar  
    48    25    31 1   
    49    26    27 ar  
    50    26    50 1   
    51    27    29 1   
    52    28    52 1   
    53    29    30 2   
    54    31    32 1   
    55    31    33 1   
    56    51    53 1   
@<TRIPOS>SUBSTRUCTURE
     1 CL4         1 TEMP              0 ****  ****    0 ROOT
