@<TRIPOS>MOLECULE
CL5
   17    16     1     0     0
SMALL
bcc


@<TRIPOS>ATOM
      1 C7           1.8690     0.4550     0.7660 c          1 CL5       0.573900
      2 C6           0.5220     0.9660     0.3790 c3         1 CL5      -0.201400
      3 O8           2.3480     0.5260     1.8720 o          1 CL5      -0.535100
      4 C5          -0.2790     1.6050     1.4990 c3         1 CL5       0.176800
      5 N4          -1.5400     2.1010     0.9930 n7         1 CL5      -0.806200
      6 C3          -2.3650     2.7030     2.0170 c3         1 CL5       0.016800
      7 C12         -3.8310     2.8760     1.5790 c          1 CL5       0.929600
      8 O13         -4.2270     2.1720     0.6290 o          1 CL5      -0.841800
      9 O14         -4.5100     3.6800     2.2480 o          1 CL5      -0.841800
     10 H7           2.4340    -0.0120    -0.0610 h4         1 CL5      -0.039800
     11 H61         -0.0220     0.1250    -0.0690 hc         1 CL5       0.065700
     12 H62          0.6680     1.6720    -0.4470 hc         1 CL5       0.065700
     13 H51          0.2850     2.4450     1.9140 h1         1 CL5       0.021700
     14 H52         -0.4060     0.8850     2.3230 h1         1 CL5       0.021700
     15 HN4         -2.0690     1.3470     0.5730 hn         1 CL5       0.371800
     16 H31         -1.9520     3.6760     2.3000 h1         1 CL5       0.010700
     17 H32         -2.3800     2.1060     2.9480 h1         1 CL5       0.010700
@<TRIPOS>BOND
     1     1     2 1   
     2     1     3 2   
     3     1    10 1   
     4     2     4 1   
     5     2    11 1   
     6     2    12 1   
     7     4     5 1   
     8     4    13 1   
     9     4    14 1   
    10     5     6 1   
    11     5    15 1   
    12     6     7 1   
    13     6    16 1   
    14     6    17 1   
    15     7     8 1   
    16     7     9 1   
@<TRIPOS>SUBSTRUCTURE
     1 CL5         1 TEMP              0 ****  ****    0 ROOT
