@<TRIPOS>MOLECULE
CL5
   17    16     1     0     0
SMALL
No Charge or Current Charge


@<TRIPOS>ATOM
      1 C7           1.9450     0.5410     0.7740 c          1 CL5       0.573900
      2 C6           0.6330     1.1530     0.2950 c3         1 CL5      -0.201400
      3 O8           2.9120     1.2100     1.1230 o          1 CL5      -0.535100
      4 C5          -0.2590     1.4970     1.4950 c3         1 CL5       0.176800
      5 N4          -1.5230     2.0760     1.0160 n7         1 CL5      -0.861400
      6 C3          -2.4910     2.4770     2.0910 c3         1 CL5       0.016800
      7 C12         -3.8880     3.0080     1.5870 c          1 CL5       0.719000
      8 O13         -4.6040     2.2440     0.9500 o          1 CL5      -0.736500
      9 O14         -4.1960     4.1690     1.8280 o          1 CL5      -0.736500
     10 H7           1.9790    -0.5710     0.7940 h4         1 CL5      -0.039800
     11 H61          0.1060     0.4100    -0.3150 hc         1 CL5       0.065700
     12 H62          0.8400     2.0640    -0.2790 hc         1 CL5       0.065700
     13 H51          0.2660     2.2120     2.1440 h1         1 CL5       0.021700
     14 H52         -0.4510     0.5860     2.0790 h1         1 CL5       0.021700
     15 HN4         -1.9890     1.3800     0.4170 hn         1 CL5       0.427000
     16 H31         -2.0390     3.2550     2.7220 h1         1 CL5       0.010700
     17 H32         -2.6950     1.6160     2.7430 h1         1 CL5       0.010700
@<TRIPOS>BOND
     1     1     2 1   
     2     1     3 2   
     3     1    10 1   
     4     2     4 1   
     5     2    11 1   
     6     2    12 1   
     7     4     5 1   
     8     4    13 1   
     9     4    14 1   
    10     5     6 1   
    11     5    15 1   
    12     6     7 1   
    13     6    16 1   
    14     6    17 1   
    15     7     8 1   
    16     7     9 1   
@<TRIPOS>SUBSTRUCTURE
     1 CL5         1 TEMP              0 ****  ****    0 ROOT
