@<TRIPOS>MOLECULE
CL6
   42    45     1     0     0
SMALL
No Charge or Current Charge


@<TRIPOS>ATOM
      1 ClAY         2.2840    -4.2250     3.5270 cl         1 CL6      -0.190000
      2 CAX          3.2470    -3.2390     4.6330 ca         1 CL6       0.130000
      3 CAV          4.3310    -3.8900     5.2470 ca         1 CL6      -0.111000
      4 CAT          5.1500    -3.2150     6.1600 ca         1 CL6      -0.095000
      5 CAS          4.8730    -1.8810     6.4750 ca         1 CL6      -0.109000
      6 CAU          3.7940    -1.2180     5.8680 ca         1 CL6      -0.091000
      7 CAW          2.9680    -1.8650     4.9060 ca         1 CL6      -0.095300
      8 CAR          1.7520    -1.1230     4.2570 c3         1 CL6       0.268900
      9 CAC          1.7890    -1.1260     2.7010 ca         1 CL6      -0.096800
     10 CAE          0.6870    -0.6100     1.9740 ca         1 CL6      -0.088500
     11 CAF          0.7110    -0.5340     0.5710 ca         1 CL6      -0.114500
     12 CAD          1.8520    -0.9410    -0.1350 ca         1 CL6      -0.096000
     13 CAB          2.9750    -1.4030     0.5680 ca         1 CL6      -0.114500
     14 CAA          2.9520    -1.4790     1.9710 ca         1 CL6      -0.088500
     15 NAO          1.7310     0.3360     4.5840 na         1 CL6      -0.178500
     16 CAM          2.7070     1.2400     4.2080 cc         1 CL6       0.389400
     17 NAN          2.3840     2.4750     4.5680 nd         1 CL6      -0.676000
     18 CAQ          1.1400     2.3780     5.1510 cd         1 CL6       0.217900
     19 CAP          0.7050     1.0790     5.1490 cc         1 CL6      -0.222000
     20 CAL          0.5030    -1.8320     4.8650 ca         1 CL6      -0.096800
     21 CAK         -0.4200    -2.5870     4.0960 ca         1 CL6      -0.088500
     22 CAI         -1.5140    -3.2270     4.7040 ca         1 CL6      -0.114500
     23 CAG         -1.7030    -3.1420     6.0910 ca         1 CL6      -0.096000
     24 CAH         -0.7870    -2.4240     6.8730 ca         1 CL6      -0.114500
     25 CAJ          0.3070    -1.7850     6.2670 ca         1 CL6      -0.088500
     26 HAV          4.5340    -4.9330     5.0150 ha         1 CL6       0.131000
     27 HAT          5.9840    -3.7290     6.6330 ha         1 CL6       0.121000
     28 HAS          5.4910    -1.3580     7.2020 ha         1 CL6       0.123000
     29 HAU          3.6090    -0.1950     6.1830 ha         1 CL6       0.135000
     30 HAE         -0.2000    -0.2660     2.5030 ha         1 CL6       0.122750
     31 HAF         -0.1530    -0.1510     0.0320 ha         1 CL6       0.116750
     32 HAD          1.8740    -0.8790    -1.2210 ha         1 CL6       0.115500
     33 HAB          3.8710    -1.6930     0.0240 ha         1 CL6       0.116750
     34 HAA          3.8550    -1.8070     2.4770 ha         1 CL6       0.122750
     35 HAM          3.6160     0.9360     3.7000 h5         1 CL6       0.060100
     36 HAQ          0.6180     3.2510     5.5240 h4         1 CL6       0.036100
     37 HAP         -0.2320     0.6620     5.4940 h4         1 CL6       0.163000
     38 HAK         -0.2930    -2.7110     3.0250 ha         1 CL6       0.122750
     39 HAI         -2.2110    -3.8000     4.0970 ha         1 CL6       0.116750
     40 HAG         -2.5500    -3.6400     6.5590 ha         1 CL6       0.115500
     41 HAH         -0.9220    -2.3650     7.9510 ha         1 CL6       0.116750
     42 HAJ          1.0090    -1.2410     6.8960 ha         1 CL6       0.122750
@<TRIPOS>BOND
     1     1     2 1   
     2     2     3 ar  
     3     2     7 ar  
     4     3     4 ar  
     5     3    26 1   
     6     4     5 ar  
     7     4    27 1   
     8     5     6 ar  
     9     5    28 1   
    10     6     7 ar  
    11     6    29 1   
    12     7     8 1   
    13     8     9 1   
    14     8    15 1   
    15     8    20 1   
    16     9    10 ar  
    17     9    14 ar  
    18    10    11 ar  
    19    10    30 1   
    20    11    12 ar  
    21    11    31 1   
    22    12    13 ar  
    23    12    32 1   
    24    13    14 ar  
    25    13    33 1   
    26    14    34 1   
    27    15    16 1   
    28    15    19 1   
    29    16    17 2   
    30    16    35 1   
    31    17    18 1   
    32    18    19 2   
    33    18    36 1   
    34    19    37 1   
    35    20    21 ar  
    36    20    25 ar  
    37    21    22 ar  
    38    21    38 1   
    39    22    23 ar  
    40    22    39 1   
    41    23    24 ar  
    42    23    40 1   
    43    24    25 ar  
    44    24    41 1   
    45    25    42 1   
@<TRIPOS>SUBSTRUCTURE
     1 CL6         1 TEMP              0 ****  ****    0 ROOT
