@<TRIPOS>MOLECULE
CL6
   42    45     1     0     0
SMALL
abcg2


@<TRIPOS>ATOM
      1 CLAY         2.1600    -4.2490     3.9750 cl         1 CL6      -0.190000
      2 CAX          3.1900    -3.1610     4.8480 ca         1 CL6       0.130000
      3 CAV          4.2850    -3.7260     5.4840 ca         1 CL6      -0.111000
      4 CAT          5.1580    -2.9270     6.2040 ca         1 CL6      -0.095000
      5 CAS          4.9240    -1.5650     6.2800 ca         1 CL6      -0.109000
      6 CAU          3.8270    -1.0120     5.6360 ca         1 CL6      -0.091000
      7 CAW          2.9350    -1.7850     4.8980 ca         1 CL6      -0.095300
      8 CAR          1.7060    -1.1580     4.2190 c3         1 CL6       0.268900
      9 CAC          1.8140    -1.1870     2.6870 ca         1 CL6      -0.096800
     10 CAE          0.8400    -0.5260     1.9340 ca         1 CL6      -0.088500
     11 CAF          0.9140    -0.4780     0.5530 ca         1 CL6      -0.114500
     12 CAD          1.9800    -1.0740    -0.1100 ca         1 CL6      -0.096000
     13 CAB          2.9700    -1.7010     0.6280 ca         1 CL6      -0.114500
     14 CAA          2.8890    -1.7530     2.0150 ca         1 CL6      -0.088500
     15 NAO          1.6230     0.2750     4.5660 na         1 CL6      -0.178500
     16 CAM          2.3710     1.2500     3.9860 cc         1 CL6       0.389400
     17 NAN          2.1670     2.4190     4.5300 nd         1 CL6      -0.676000
     18 CAQ          1.2440     2.2030     5.5140 cd         1 CL6       0.217900
     19 CAP          0.8970     0.8860     5.5580 cc         1 CL6      -0.222000
     20 CAL          0.4570    -1.8660     4.7770 ca         1 CL6      -0.096800
     21 CAK         -0.6010    -2.2970     3.9860 ca         1 CL6      -0.088500
     22 CAI         -1.7000    -2.9310     4.5510 ca         1 CL6      -0.114500
     23 CAG         -1.7610    -3.1490     5.9180 ca         1 CL6      -0.096000
     24 CAH         -0.7050    -2.7340     6.7180 ca         1 CL6      -0.114500
     25 CAJ          0.3930    -2.1070     6.1500 ca         1 CL6      -0.088500
     26 HAV          4.4510    -4.7930     5.4160 ha         1 CL6       0.131000
     27 HAT          6.0100    -3.3730     6.6990 ha         1 CL6       0.121000
     28 HAS          5.5880    -0.9250     6.8450 ha         1 CL6       0.123000
     29 HAU          3.6720     0.0530     5.7330 ha         1 CL6       0.135000
     30 HAE          0.0170    -0.0250     2.4290 ha         1 CL6       0.122750
     31 HAF          0.1410     0.0350    -0.0050 ha         1 CL6       0.116750
     32 HAD          2.0440    -1.0340    -1.1900 ha         1 CL6       0.115500
     33 HAB          3.8200    -2.1490     0.1300 ha         1 CL6       0.116750
     34 HAA          3.7000    -2.2220     2.5540 ha         1 CL6       0.122750
     35 HAM          3.0520     1.0520     3.1730 h5         1 CL6       0.060100
     36 HAQ          0.8690     3.0020     6.1340 h4         1 CL6       0.036100
     37 HAP          0.1980     0.3660     6.1870 h4         1 CL6       0.163000
     38 HAK         -0.5770    -2.1750     2.9130 ha         1 CL6       0.122750
     39 HAI         -2.5070    -3.2630     3.9110 ha         1 CL6       0.116750
     40 HAG         -2.6180    -3.6430     6.3570 ha         1 CL6       0.115500
     41 HAH         -0.7290    -2.9030     7.7860 ha         1 CL6       0.116750
     42 HAJ          1.2090    -1.8070     6.7960 ha         1 CL6       0.122750
@<TRIPOS>BOND
     1     1     2 1   
     2     2     3 ar  
     3     2     7 ar  
     4     3     4 ar  
     5     3    26 1   
     6     4     5 ar  
     7     4    27 1   
     8     5     6 ar  
     9     5    28 1   
    10     6     7 ar  
    11     6    29 1   
    12     7     8 1   
    13     8     9 1   
    14     8    15 1   
    15     8    20 1   
    16     9    10 ar  
    17     9    14 ar  
    18    10    11 ar  
    19    10    30 1   
    20    11    12 ar  
    21    11    31 1   
    22    12    13 ar  
    23    12    32 1   
    24    13    14 ar  
    25    13    33 1   
    26    14    34 1   
    27    15    16 1   
    28    15    19 1   
    29    16    17 2   
    30    16    35 1   
    31    17    18 1   
    32    18    19 2   
    33    18    36 1   
    34    19    37 1   
    35    20    21 ar  
    36    20    25 ar  
    37    21    22 ar  
    38    21    38 1   
    39    22    23 ar  
    40    22    39 1   
    41    23    24 ar  
    42    23    40 1   
    43    24    25 ar  
    44    24    41 1   
    45    25    42 1   
@<TRIPOS>SUBSTRUCTURE
     1 CL6         1 TEMP              0 ****  ****    0 ROOT
