@<TRIPOS>MOLECULE
CL8
   42    42     1     0     0
SMALL
abcg2


@<TRIPOS>ATOM
      1 C1          39.6020    37.9680   -10.3290 c3         1 CL8       0.257300
      2 CL1         40.7020    37.0720    -9.2970 cl         1 CL8      -0.239500
      3 CL2         38.2940    36.8840   -10.9020 cl         1 CL8      -0.239500
      4 C2          40.3260    38.5000   -11.5690 c          1 CL8       0.643100
      5 O2          41.3710    38.0290   -11.9500 o          1 CL8      -0.556100
      6 N2          39.6200    39.4490   -12.2170 ns         1 CL8      -0.494900
      7 C3          40.1390    40.1190   -13.3890 c3         1 CL8       0.048700
      8 C4          39.8410    41.6180   -13.3480 c3         1 CL8       0.156600
      9 C5          39.5280    39.5110   -14.6710 c3         1 CL8       0.198600
     10 O5          38.1290    39.5870   -14.6700 oh         1 CL8      -0.661000
     11 C6          40.0480    38.1050   -14.8630 ca         1 CL8      -0.050300
     12 C7          41.3440    37.9220   -15.3400 ca         1 CL8      -0.104000
     13 C8          41.8850    36.6600   -15.4740 ca         1 CL8      -0.038500
     14 C9          41.1100    35.5630   -15.1210 ca         1 CL8      -0.179200
     15 N9          41.6670    34.2280   -15.2490 no         1 CL8       0.698200
     16 O9A         40.9710    33.2870   -14.9490 o          1 CL8      -0.413500
     17 O9B         42.8040    34.1210   -15.6490 o          1 CL8      -0.413500
     18 C10         39.8140    35.7140   -14.6550 ca         1 CL8      -0.038500
     19 C11         39.2880    36.9890   -14.5360 ca         1 CL8      -0.104000
     20 O4          40.0660    42.2250   -12.0820 os         1 CL8      -0.441100
     21 O15         40.8800    40.4720    -9.6560 o          1 CL8      -0.746000
     22 C15         41.8250    40.9110    -8.9660 c          1 CL8       0.732000
     23 O16         42.4110    40.3350    -8.0330 o          1 CL8      -0.746000
     24 C14         42.3170    42.3260    -9.3250 c3         1 CL8      -0.211400
     25 C13         41.4020    43.0380   -10.3090 c3         1 CL8      -0.094400
     26 C12         41.3130    42.3060   -11.6170 c          1 CL8       0.631100
     27 O12         42.2710    41.9100   -12.2370 o          1 CL8      -0.512000
     28 H1          39.1430    38.7580    -9.7430 h2         1 CL8       0.137700
     29 H2          38.8700    39.8950   -11.7110 hn         1 CL8       0.326500
     30 H3          41.2160    39.9690   -13.4220 h1         1 CL8       0.113700
     31 H41C        40.4240    42.1100   -14.1300 h1         1 CL8       0.050700
     32 H42C        38.7860    41.7990   -13.5520 h1         1 CL8       0.050700
     33 H5          39.8690    40.1140   -15.5190 h1         1 CL8       0.076700
     34 HA          37.7950    39.2390   -13.8350 ho         1 CL8       0.455000
     35 H7          41.9450    38.7820   -15.6140 ha         1 CL8       0.125500
     36 H11         38.2700    37.0890   -14.1850 ha         1 CL8       0.125500
     37 H8          42.8920    36.5410   -15.8480 ha         1 CL8       0.145000
     38 H10         39.2110    34.8580   -14.3900 ha         1 CL8       0.145000
     39 H141        42.4070    42.9250    -8.4150 hc         1 CL8       0.037700
     40 H142        43.3310    42.2580    -9.7320 hc         1 CL8       0.037700
     41 H131        40.4090    43.1800    -9.8820 hc         1 CL8       0.043200
     42 H132        41.7960    44.0350   -10.5310 hc         1 CL8       0.043200
@<TRIPOS>BOND
     1     1     2 1   
     2     1     3 1   
     3     1     4 1   
     4     1    28 1   
     5     4     5 2   
     6     4     6 1   
     7     6     7 1   
     8     6    29 1   
     9     7     8 1   
    10     7     9 1   
    11     7    30 1   
    12     8    20 1   
    13     8    31 1   
    14     8    32 1   
    15     9    10 1   
    16     9    11 1   
    17     9    33 1   
    18    10    34 1   
    19    11    12 ar  
    20    11    19 ar  
    21    12    13 ar  
    22    12    35 1   
    23    13    14 ar  
    24    13    37 1   
    25    14    15 1   
    26    14    18 ar  
    27    15    16 1   
    28    15    17 1   
    29    18    19 ar  
    30    18    38 1   
    31    19    36 1   
    32    20    26 1   
    33    21    22 1   
    34    22    23 1   
    35    22    24 1   
    36    24    25 1   
    37    24    39 1   
    38    24    40 1   
    39    25    26 1   
    40    25    41 1   
    41    25    42 1   
    42    26    27 2   
@<TRIPOS>SUBSTRUCTURE
     1 CL8         1 TEMP              0 ****  ****    0 ROOT
