@<TRIPOS>MOLECULE
CL8
   42    42     1     0     0
SMALL
No Charge or Current Charge


@<TRIPOS>ATOM
      1 C1          39.6980    37.6580   -10.2870 c3         1 CL8       0.257300
      2 Cl1         39.4180    35.8840   -10.6310 cl         1 CL8      -0.239500
      3 Cl2         38.0970    38.3870    -9.7670 cl         1 CL8      -0.239500
      4 C2          40.3680    38.3780   -11.4890 c          1 CL8       0.643100
      5 O2          41.4940    38.0900   -11.8820 o          1 CL8      -0.556100
      6 N2          39.6090    39.3520   -12.1240 ns         1 CL8      -0.494900
      7 C3          40.0560    40.1470   -13.2880 c3         1 CL8       0.048700
      8 C4          39.6350    41.6390   -13.1570 c3         1 CL8       0.156600
      9 C5          39.5990    39.5320   -14.6470 c3         1 CL8       0.198600
     10 O5          38.1660    39.5670   -14.7620 oh         1 CL8      -0.661000
     11 C6          40.1330    38.1090   -14.8670 ca         1 CL8      -0.050300
     12 C7          41.3430    37.9270   -15.5650 ca         1 CL8      -0.104000
     13 C8          41.8710    36.6410   -15.7690 ca         1 CL8      -0.038500
     14 C9          41.1950    35.5030   -15.2730 ca         1 CL8      -0.179200
     15 N9          41.7570    34.1300   -15.4840 no         1 CL8       0.698200
     16 O9A         41.1300    33.1630   -15.0310 o          1 CL8      -0.413500
     17 O9B         42.8230    34.0220   -16.1060 o          1 CL8      -0.413500
     18 C10         39.9810    35.6820   -14.5710 ca         1 CL8      -0.038500
     19 C11         39.4570    36.9710   -14.3730 ca         1 CL8      -0.104000
     20 O4          40.0850    42.1950   -11.8990 os         1 CL8      -0.441100
     21 O15         41.2410    40.2030    -9.1870 o          1 CL8      -0.746000
     22 C15         41.3630    41.3090    -8.6910 c          1 CL8       0.732000
     23 O16         40.7090    41.7020    -7.7380 o          1 CL8      -0.746000
     24 C14         42.3740    42.2760    -9.3240 c3         1 CL8      -0.211400
     25 C13         41.6900    43.1840   -10.3860 c3         1 CL8      -0.094400
     26 C12         41.4180    42.4750   -11.7260 c          1 CL8       0.631100
     27 O12         42.2880    42.2480   -12.5570 o          1 CL8      -0.512000
     28 H1          40.3760    37.7200    -9.4320 h2         1 CL8       0.137700
     29 H2          38.7170    39.5740   -11.6960 hn         1 CL8       0.326500
     30 H3          41.1530    40.1270   -13.3070 h1         1 CL8       0.113700
     31 H41C        40.0330    42.2160   -14.0020 h1         1 CL8       0.050700
     32 H42C        38.5400    41.7030   -13.2080 h1         1 CL8       0.050700
     33 H5          40.0270    40.1620   -15.4400 h1         1 CL8       0.076700
     34 HA          37.8080    39.0120   -14.0380 ho         1 CL8       0.455000
     35 H7          41.8840    38.7890   -15.9500 ha         1 CL8       0.125500
     36 H11         38.5260    37.0740   -13.8220 ha         1 CL8       0.125500
     37 H8          42.8090    36.5390   -16.3120 ha         1 CL8       0.145000
     38 H10         39.4360    34.8280   -14.1720 ha         1 CL8       0.145000
     39 H141        42.7450    42.9670    -8.5580 hc         1 CL8       0.037700
     40 H142        43.1710    41.7280    -9.8420 hc         1 CL8       0.037700
     41 H131        40.7480    43.5570    -9.9660 hc         1 CL8       0.043200
     42 H132        42.3610    44.0280   -10.5860 hc         1 CL8       0.043200
@<TRIPOS>BOND
     1     1     2 1   
     2     1     3 1   
     3     1     4 1   
     4     1    28 1   
     5     4     5 2   
     6     4     6 1   
     7     6     7 1   
     8     6    29 1   
     9     7     8 1   
    10     7     9 1   
    11     7    30 1   
    12     8    20 1   
    13     8    31 1   
    14     8    32 1   
    15     9    10 1   
    16     9    11 1   
    17     9    33 1   
    18    10    34 1   
    19    11    12 ar  
    20    11    19 ar  
    21    12    13 ar  
    22    12    35 1   
    23    13    14 ar  
    24    13    37 1   
    25    14    15 1   
    26    14    18 ar  
    27    15    16 1   
    28    15    17 1   
    29    18    19 ar  
    30    18    38 1   
    31    19    36 1   
    32    20    26 1   
    33    21    22 1   
    34    22    23 1   
    35    22    24 1   
    36    24    25 1   
    37    24    39 1   
    38    24    40 1   
    39    25    26 1   
    40    25    41 1   
    41    25    42 1   
    42    26    27 2   
@<TRIPOS>SUBSTRUCTURE
     1 CL8         1 TEMP              0 ****  ****    0 ROOT
