@<TRIPOS>MOLECULE
CL9
   31    33     1     0     0
SMALL
No Charge or Current Charge


@<TRIPOS>ATOM
      1 C2          -2.8340    -0.2250     1.4530 ca         1 CL9       0.285000
      2 C4          -1.0520     0.1750     0.0810 ca         1 CL9       0.127500
      3 C5          -1.7390     1.2050    -0.5080 ca         1 CL9      -0.101600
      4 C6          -3.0420     1.4840    -0.0470 ca         1 CL9       0.465900
      5 C8           0.1660     1.1510    -1.5090 cc         1 CL9       0.414700
      6 Cl          -3.5470    -1.1730     2.7480 cl         1 CL9      -0.137000
      7 N3          -1.5800    -0.5670     1.0740 nb         1 CL9      -0.213000
      8 N9           0.1590     0.1320    -0.5500 na         1 CL9      -0.298300
      9 N7          -0.9940     1.8350    -1.5100 nd         1 CL9      -0.555100
     10 N6          -3.8020     2.4860    -0.5650 nv         1 CL9      -1.056900
     11 N1          -3.5980     0.7700     0.9430 nb         1 CL9      -0.294000
     12 C1           1.2380    -0.8180    -0.2930 c5         1 CL9       0.323300
     13 C7           2.1450    -1.2070    -1.5050 c5         1 CL9      -0.163400
     14 C3           3.4280    -0.3850    -1.2390 c5         1 CL9       0.136300
     15 O3           4.5620    -0.9420    -1.9070 oh         1 CL9      -0.702000
     16 C9           3.4850    -0.5250     0.3060 c5         1 CL9       0.155300
     17 O4           2.1220    -0.2300     0.6870 os         1 CL9      -0.436000
     18 C10          4.4810     0.4350     1.0130 c3         1 CL9       0.166600
     19 O5           4.5900     0.1410     2.4200 oh         1 CL9      -0.704000
     20 H8           1.0170     1.3420    -2.1530 h5         1 CL9       0.072800
     21 HN6         -3.3190     3.1660    -1.1480 hn         1 CL9       0.511000
     22 HN6A        -4.5800     2.8350    -0.0120 hn         1 CL9       0.511000
     23 H1           0.7630    -1.7190     0.1200 h2         1 CL9       0.113700
     24 H2           2.3500    -2.2840    -1.4890 hc         1 CL9       0.084200
     25 H2'A         1.6880    -0.9890    -2.4770 hc         1 CL9       0.084200
     26 H3           3.2910     0.6690    -1.5220 h1         1 CL9       0.043700
     27 HO3          4.4280    -0.8080    -2.8750 ho         1 CL9       0.516000
     28 H4           3.7240    -1.5590     0.5920 h1         1 CL9       0.087700
     29 H5           5.4630     0.3320     0.5340 h1         1 CL9       0.027700
     30 H5'A         4.1450     1.4700     0.8600 h1         1 CL9       0.027700
     31 HO5          5.1900     0.8200     2.8090 ho         1 CL9       0.507000
@<TRIPOS>BOND
     1     1     6 1   
     2     1     7 ar  
     3     1    11 ar  
     4     2     3 ar  
     5     2     7 ar  
     6     2     8 1   
     7     3     4 ar  
     8     3     9 1   
     9     4    10 1   
    10     4    11 ar  
    11     5     8 1   
    12     5     9 2   
    13     5    20 1   
    14     8    12 1   
    15    10    21 1   
    16    10    22 1   
    17    12    13 1   
    18    12    17 1   
    19    12    23 1   
    20    13    14 1   
    21    13    24 1   
    22    13    25 1   
    23    14    15 1   
    24    14    16 1   
    25    14    26 1   
    26    15    27 1   
    27    16    17 1   
    28    16    18 1   
    29    16    28 1   
    30    18    19 1   
    31    18    29 1   
    32    18    30 1   
    33    19    31 1   
@<TRIPOS>SUBSTRUCTURE
     1 CL9         1 TEMP              0 ****  ****    0 ROOT
