@<TRIPOS>MOLECULE
CL9
   31    33     1     0     0
SMALL
bcc


@<TRIPOS>ATOM
      1 C2          -2.9680    -0.6800     0.1120 ca         1 CL9       0.811000
      2 C4          -0.9690     0.1800     0.1540 ca         1 CL9       0.455800
      3 C5          -1.4450     1.4420    -0.1630 ca         1 CL9      -0.232200
      4 C6          -2.8370     1.5550    -0.3380 ca         1 CL9       0.794200
      5 C8           0.6470     1.6360     0.0300 cc         1 CL9       0.414700
      6 CL          -4.0220    -2.0500     0.2830 cl         1 CL9      -0.137000
      7 N3          -1.6970    -0.9300     0.3020 nb         1 CL9      -0.739000
      8 N9           0.3770     0.3180     0.2770 na         1 CL9      -0.269000
      9 N7          -0.4160     2.3410    -0.2340 nd         1 CL9      -0.555100
     10 N6          -3.4410     2.6990    -0.6420 nv         1 CL9      -0.946500
     11 N1          -3.5780     0.4480    -0.1890 nb         1 CL9      -0.820000
     12 C1           1.3100    -0.7700     0.5730 c5         1 CL9       0.270800
     13 C7           1.7080    -1.5480    -0.6740 c5         1 CL9      -0.163400
     14 C3           2.9680    -0.8140    -1.1210 c5         1 CL9       0.113100
     15 O3           3.8700    -1.5710    -1.8770 oh         1 CL9      -0.579800
     16 C9           3.5910    -0.4580     0.2260 c5         1 CL9       0.132100
     17 O4           2.4830    -0.2200     1.0960 os         1 CL9      -0.389600
     18 C10          4.4980     0.7450     0.1790 c3         1 CL9       0.143400
     19 O5           5.0820     0.9330     1.4430 oh         1 CL9      -0.581800
     20 H8           1.6510     2.0300     0.0700 h5         1 CL9       0.072800
     21 HN6         -2.9170     3.5490    -0.7570 hn         1 CL9       0.455800
     22 HN6A        -4.4410     2.7360    -0.7480 hn         1 CL9       0.455800
     23 H1           0.8150    -1.3990     1.3160 h2         1 CL9       0.113700
     24 H2           1.9640    -2.5720    -0.3930 hc         1 CL9       0.084200
     25 H2'A         0.9180    -1.5850    -1.4230 hc         1 CL9       0.084200
     26 H3           2.6890     0.1090    -1.6500 h1         1 CL9       0.043700
     27 HO3          3.5200    -1.6590    -2.7690 ho         1 CL9       0.417000
     28 H4           4.1550    -1.3260     0.5940 h1         1 CL9       0.087700
     29 H5           5.2500     0.5560    -0.5980 h1         1 CL9       0.027700
     30 H5'A         3.9220     1.6240    -0.1440 h1         1 CL9       0.027700
     31 HO5          5.6600     1.7000     1.3970 ho         1 CL9       0.408000
@<TRIPOS>BOND
     1     1     6 1   
     2     1     7 ar  
     3     1    11 ar  
     4     2     3 ar  
     5     2     7 ar  
     6     2     8 1   
     7     3     4 ar  
     8     3     9 1   
     9     4    10 1   
    10     4    11 ar  
    11     5     8 1   
    12     5     9 2   
    13     5    20 1   
    14     8    12 1   
    15    10    21 1   
    16    10    22 1   
    17    12    13 1   
    18    12    17 1   
    19    12    23 1   
    20    13    14 1   
    21    13    24 1   
    22    13    25 1   
    23    14    15 1   
    24    14    16 1   
    25    14    26 1   
    26    15    27 1   
    27    16    17 1   
    28    16    18 1   
    29    16    28 1   
    30    18    19 1   
    31    18    29 1   
    32    18    30 1   
    33    19    31 1   
@<TRIPOS>SUBSTRUCTURE
     1 CL9         1 TEMP              0 ****  ****    0 ROOT
