@<TRIPOS>MOLECULE
CLC
   32    32     1     0     0
SMALL
No Charge or Current Charge


@<TRIPOS>ATOM
      1 O1           2.1200    -1.1500    -1.1060 o          1 CLC      -0.593100
      2 O2          -1.3810     0.6090    -4.2730 oh         1 CLC      -0.668000
      3 N2           0.7840     0.2510    -2.3140 ns         1 CLC      -0.522900
      4 O4          -1.9590     1.2480    -1.6720 oh         1 CLC      -0.637000
      5 C11          1.9630    -0.0900    -1.6940 c          1 CLC       0.603100
      6 C12          3.0630     0.9560    -1.8000 c3         1 CLC      -0.180100
      7 C21         -1.0210    -0.6870    -3.7550 c3         1 CLC       0.151600
      8 C50         -1.5030    -0.0580    -1.2860 c3         1 CLC       0.207600
      9 C22         -0.4460    -0.5670    -2.3160 c3         1 CLC       0.071700
     10 C1          -0.9780    -0.0520     0.1550 ca         1 CLC      -0.061300
     11 C2          -0.2540     1.0430     0.6720 ca         1 CLC      -0.107000
     12 C3           0.2330     1.0240     1.9910 ca         1 CLC      -0.040000
     13 C4           0.0040    -0.0970     2.8220 ca         1 CLC      -0.174200
     14 C5          -0.7210    -1.1950     2.3030 ca         1 CLC      -0.040000
     15 C6          -1.2040    -1.1690     0.9830 ca         1 CLC      -0.107000
     16 N4           0.5220    -0.1210     4.2270 no         1 CLC       0.695200
     17 O5           0.2950    -1.1240     4.9180 o          1 CLC      -0.401500
     18 O6           1.1540     0.8620     4.6370 o          1 CLC      -0.401500
     19 HA          -1.5800     0.4900    -5.2300 ho         1 CLC       0.453000
     20 H2           0.7600     1.1460    -2.7890 hn         1 CLC       0.322500
     21 H4          -1.8580     1.2580    -2.6590 ho         1 CLC       0.451000
     22 H121         3.9890     0.6480    -1.3020 hc         1 CLC       0.063033
     23 H122         3.2300     1.1930    -2.8570 hc         1 CLC       0.063033
     24 H123         2.6880     1.9070    -1.4050 hc         1 CLC       0.063033
     25 H211        -0.2630    -1.1540    -4.3980 h1         1 CLC       0.036700
     26 H212        -1.8960    -1.3500    -3.7400 h1         1 CLC       0.036700
     27 H50         -2.3520    -0.7560    -1.3270 h1         1 CLC       0.081700
     28 H22         -0.1780    -1.5860    -2.0090 h1         1 CLC       0.089700
     29 HB          -0.0620     1.9140     0.0500 ha         1 CLC       0.123500
     30 H3           0.7890     1.8860     2.3570 ha         1 CLC       0.149500
     31 H5          -0.9140    -2.0750     2.9150 ha         1 CLC       0.149500
     32 H6          -1.7550    -2.0260     0.6030 ha         1 CLC       0.123500
@<TRIPOS>BOND
     1     1     5 2   
     2     2     7 1   
     3     2    19 1   
     4     3     5 1   
     5     3     9 1   
     6     3    20 1   
     7     4     8 1   
     8     4    21 1   
     9     5     6 1   
    10     6    22 1   
    11     6    23 1   
    12     6    24 1   
    13     7     9 1   
    14     7    25 1   
    15     7    26 1   
    16     8     9 1   
    17     8    10 1   
    18     8    27 1   
    19     9    28 1   
    20    10    11 ar  
    21    10    15 ar  
    22    11    12 ar  
    23    11    29 1   
    24    12    13 ar  
    25    12    30 1   
    26    13    14 ar  
    27    13    16 1   
    28    14    15 ar  
    29    14    31 1   
    30    15    32 1   
    31    16    17 1   
    32    16    18 1   
@<TRIPOS>SUBSTRUCTURE
     1 CLC         1 TEMP              0 ****  ****    0 ROOT
