@<TRIPOS>MOLECULE
CLC
   32    32     1     0     0
SMALL
bcc


@<TRIPOS>ATOM
      1 O1           1.8410    -1.1590    -0.8640 o          1 CLC      -0.593100
      2 O2          -1.1580     0.5280    -4.3130 oh         1 CLC      -0.605800
      3 N2           0.6690     0.1770    -2.2650 ns         1 CLC      -0.589900
      4 O4          -2.0980     1.2490    -1.6750 oh         1 CLC      -0.574800
      5 C11          1.7750    -0.1620    -1.5640 c          1 CLC       0.670100
      6 C12          2.9170     0.8150    -1.7070 c3         1 CLC      -0.180100
      7 C21         -1.0750    -0.7350    -3.6910 c3         1 CLC       0.128400
      8 C50         -1.5990    -0.0020    -1.2870 c3         1 CLC       0.184400
      9 C22         -0.5570    -0.5870    -2.2650 c3         1 CLC       0.071700
     10 C1          -1.0290     0.0120     0.1130 ca         1 CLC      -0.061300
     11 C2          -0.4820     1.1650     0.6660 ca         1 CLC      -0.125000
     12 C3           0.0920     1.1430     1.9260 ca         1 CLC      -0.058000
     13 C4           0.1020    -0.0460     2.6390 ca         1 CLC      -0.174200
     14 C5          -0.4520    -1.2080     2.1170 ca         1 CLC      -0.058000
     15 C6          -1.0120    -1.1650     0.8550 ca         1 CLC      -0.125000
     16 N4           0.6960    -0.0760     3.9630 no         1 CLC       0.315200
     17 O5           0.6790    -1.1220     4.5710 o          1 CLC      -0.211500
     18 O6           1.1810     0.9440     4.3950 o          1 CLC      -0.211500
     19 HA          -1.0780     0.4050    -5.2630 ho         1 CLC       0.414000
     20 H2           0.7270     0.9640    -2.8920 hn         1 CLC       0.322500
     21 H4          -1.3850     1.7950    -2.0240 ho         1 CLC       0.412000
     22 H121         3.8140     0.4220    -1.2380 hc         1 CLC       0.063033
     23 H122         3.1310     1.0300    -2.7540 hc         1 CLC       0.063033
     24 H123         2.6590     1.7610    -1.2270 hc         1 CLC       0.063033
     25 H211        -0.3850    -1.3950    -4.2270 h1         1 CLC       0.036700
     26 H212        -2.0490    -1.2400    -3.6630 h1         1 CLC       0.036700
     27 H50         -2.4530    -0.6880    -1.2940 h1         1 CLC       0.081700
     28 H22         -0.3260    -1.5950    -1.9140 h1         1 CLC       0.089700
     29 HB          -0.5000     2.1020     0.1260 ha         1 CLC       0.141500
     30 H3           0.5170     2.0460     2.3370 ha         1 CLC       0.167500
     31 H5          -0.4500    -2.1310     2.6770 ha         1 CLC       0.167500
     32 H6          -1.4430    -2.0690     0.4430 ha         1 CLC       0.141500
@<TRIPOS>BOND
     1     1     5 2   
     2     2     7 1   
     3     2    19 1   
     4     3     5 1   
     5     3     9 1   
     6     3    20 1   
     7     4     8 1   
     8     4    21 1   
     9     5     6 1   
    10     6    22 1   
    11     6    23 1   
    12     6    24 1   
    13     7     9 1   
    14     7    25 1   
    15     7    26 1   
    16     8     9 1   
    17     8    10 1   
    18     8    27 1   
    19     9    28 1   
    20    10    11 ar  
    21    10    15 ar  
    22    11    12 ar  
    23    11    29 1   
    24    12    13 ar  
    25    12    30 1   
    26    13    14 ar  
    27    13    16 1   
    28    14    15 ar  
    29    14    31 1   
    30    15    32 1   
    31    16    17 1   
    32    16    18 1   
@<TRIPOS>SUBSTRUCTURE
     1 CLC         1 TEMP              0 ****  ****    0 ROOT
