@<TRIPOS>MOLECULE
CLE
   23    22     1     0     0
SMALL
No Charge or Current Charge


@<TRIPOS>ATOM
      1 N           -1.7950     0.7050    -0.4940 n8         1 CLE      -0.873800
      2 CA          -0.3230     0.4340    -0.6130 c3         1 CLE       0.084500
      3 CB           0.1400    -0.5260     0.5220 c3         1 CLE      -0.115400
      4 CG          -0.0930    -0.0380     1.9830 c3         1 CLE      -0.061700
      5 CD1          0.3040    -1.1350     2.9970 c3         1 CLE      -0.089600
      6 CD2          0.6430     1.2870     2.2990 c3         1 CLE      -0.089600
      7 C            0.1710    -0.0670    -2.0250 c          1 CLE       0.678100
      8 O           -0.5710    -0.4920    -2.9000 o          1 CLE      -0.599100
      9 N2           1.5040    -0.0090    -2.2580 nt         1 CLE      -0.678000
     10 H2          -2.0220     0.9070     0.4850 hn         1 CLE       0.350800
     11 H           -2.3130    -0.1550    -0.7050 hn         1 CLE       0.350800
     12 HA           0.1880     1.3940    -0.4630 h1         1 CLE       0.062700
     13 HB2          1.2120    -0.7270     0.4000 hc         1 CLE       0.051700
     14 HB3         -0.3630    -1.4920     0.3840 hc         1 CLE       0.051700
     15 HG          -1.1670     0.1410     2.1220 hc         1 CLE       0.041700
     16 HD11         0.0900    -0.8130     4.0230 hc         1 CLE       0.035033
     17 HD12        -0.2570    -2.0590     2.8100 hc         1 CLE       0.035033
     18 HD13         1.3750    -1.3640     2.9260 hc         1 CLE       0.035033
     19 HD21         1.7210     1.1870     2.1230 hc         1 CLE       0.035033
     20 HD22         0.2660     2.1090     1.6810 hc         1 CLE       0.035033
     21 HD23         0.4940     1.5710     3.3480 hc         1 CLE       0.035033
     22 HN21         1.8610    -0.3190    -3.1490 hn         1 CLE       0.312500
     23 HN22         2.1270     0.3420    -1.5450 hn         1 CLE       0.312500
@<TRIPOS>BOND
     1     1     2 1   
     2     1    10 1   
     3     1    11 1   
     4     2     3 1   
     5     2     7 1   
     6     2    12 1   
     7     3     4 1   
     8     3    13 1   
     9     3    14 1   
    10     4     5 1   
    11     4     6 1   
    12     4    15 1   
    13     5    16 1   
    14     5    17 1   
    15     5    18 1   
    16     6    19 1   
    17     6    20 1   
    18     6    21 1   
    19     7     8 2   
    20     7     9 1   
    21     9    22 1   
    22     9    23 1   
@<TRIPOS>SUBSTRUCTURE
     1 CLE         1 TEMP              0 ****  ****    0 ROOT
