@<TRIPOS>MOLECULE
CLE
   23    22     1     0     0
SMALL
bcc


@<TRIPOS>ATOM
      1 N           -1.6220     0.8070    -0.5720 n8         1 CLE      -0.873800
      2 CA          -0.2160     0.4530    -0.5610 c3         1 CLE       0.084500
      3 CB           0.2130    -0.5280     0.5460 c3         1 CLE      -0.115400
      4 CG          -0.1170    -0.0790     1.9700 c3         1 CLE      -0.061700
      5 CD1          0.2760    -1.1720     2.9600 c3         1 CLE      -0.089600
      6 CD2          0.5610     1.2390     2.3300 c3         1 CLE      -0.089600
      7 C            0.1380    -0.1790    -1.9010 c          1 CLE       0.678100
      8 O           -0.6480    -0.9000    -2.4970 o          1 CLE      -0.599100
      9 N2           1.3790     0.0740    -2.3410 nt         1 CLE      -0.678000
     10 H2          -1.8650     1.2600     0.3000 hn         1 CLE       0.350800
     11 H           -2.1860    -0.0330    -0.6230 hn         1 CLE       0.350800
     12 HA           0.3560     1.3790    -0.4490 h1         1 CLE       0.062700
     13 HB2          1.2940    -0.7000     0.4720 hc         1 CLE       0.051700
     14 HB3         -0.2660    -1.4960     0.3570 hc         1 CLE       0.051700
     15 HG          -1.2010     0.0590     2.0470 hc         1 CLE       0.041700
     16 HD11        -0.0010    -0.8990     3.9790 hc         1 CLE       0.035033
     17 HD12        -0.2150    -2.1180     2.7240 hc         1 CLE       0.035033
     18 HD13         1.3550    -1.3450     2.9430 hc         1 CLE       0.035033
     19 HD21         1.6470     1.1590     2.2300 hc         1 CLE       0.035033
     20 HD22         0.2330     2.0650     1.6960 hc         1 CLE       0.035033
     21 HD23         0.3450     1.5200     3.3620 hc         1 CLE       0.035033
     22 HN21         1.7280    -0.3710    -3.1740 hn         1 CLE       0.312500
     23 HN22         2.0050     0.6840    -1.8450 hn         1 CLE       0.312500
@<TRIPOS>BOND
     1     1     2 1   
     2     1    10 1   
     3     1    11 1   
     4     2     3 1   
     5     2     7 1   
     6     2    12 1   
     7     3     4 1   
     8     3    13 1   
     9     3    14 1   
    10     4     5 1   
    11     4     6 1   
    12     4    15 1   
    13     5    16 1   
    14     5    17 1   
    15     5    18 1   
    16     6    19 1   
    17     6    20 1   
    18     6    21 1   
    19     7     8 2   
    20     7     9 1   
    21     9    22 1   
    22     9    23 1   
@<TRIPOS>SUBSTRUCTURE
     1 CLE         1 TEMP              0 ****  ****    0 ROOT
