@<TRIPOS>MOLECULE
CLI
   26    27     1     0     0
SMALL
No Charge or Current Charge


@<TRIPOS>ATOM
      1 O19          2.9330    -0.2530     3.5180 o          1 CLI      -0.763500
      2 C16          1.7430    -0.4290     3.7290 c          1 CLI       0.720000
      3 O18          1.2350    -0.3210     4.8350 o          1 CLI      -0.763500
      4 C12          0.8300    -0.7520     2.5350 c3         1 CLI      -0.190400
      5 C6           0.2900     0.5600     1.9150 c3         1 CLI       0.009800
      6 C2          -0.5730     0.3260     0.6890 cc         1 CLI      -0.095400
      7 C1          -0.0970     0.1480    -0.6760 ca         1 CLI      -0.087800
      8 C5          -1.9770     0.2120     0.6210 cd         1 CLI      -0.108300
      9 C11         -2.9660     0.2810     1.7540 c          1 CLI       0.725200
     10 O14         -4.1500     0.1630     1.4690 o          1 CLI      -0.711500
     11 O15         -2.5920     0.4400     2.9060 o          1 CLI      -0.711500
     12 N7          -2.3600     0.0020    -0.7250 na         1 CLI      -0.191700
     13 C3          -1.2020    -0.0360    -1.4670 ca         1 CLI      -0.074200
     14 C8          -1.1090    -0.2390    -2.8500 ca         1 CLI      -0.133000
     15 C13          0.1680    -0.2530    -3.4360 ca         1 CLI       0.115000
     16 Cl17         0.3350    -0.5040    -5.1680 cl         1 CLI      -0.281000
     17 C9           1.3150    -0.0680    -2.6420 ca         1 CLI      -0.178000
     18 C4           1.1990     0.1350    -1.2510 ca         1 CLI       0.188000
     19 Cl10         2.6870     0.3560    -0.3340 cl         1 CLI      -0.202000
     20 H121         1.3950    -1.2550     1.7420 hc         1 CLI       0.021200
     21 H122        -0.0540    -1.3100     2.8640 hc         1 CLI       0.021200
     22 H61         -0.2550     1.1240     2.6780 hc         1 CLI       0.056700
     23 H62          1.1270     1.2180     1.6610 hc         1 CLI       0.056700
     24 HN7         -3.3100    -0.1140    -1.0630 hn         1 CLI       0.358000
     25 HC8         -1.9990    -0.3840    -3.4570 ha         1 CLI       0.107000
     26 HC9          2.2980    -0.0810    -3.1040 ha         1 CLI       0.112000
@<TRIPOS>BOND
     1     1     2 1   
     2     2     3 1   
     3     2     4 1   
     4     4     5 1   
     5     4    20 1   
     6     4    21 1   
     7     5     6 1   
     8     5    22 1   
     9     5    23 1   
    10     6     7 1   
    11     6     8 2   
    12     7    13 ar  
    13     7    18 ar  
    14     8     9 1   
    15     8    12 1   
    16     9    10 1   
    17     9    11 1   
    18    12    13 1   
    19    12    24 1   
    20    13    14 ar  
    21    14    15 ar  
    22    14    25 1   
    23    15    16 1   
    24    15    17 ar  
    25    17    18 ar  
    26    17    26 1   
    27    18    19 1   
@<TRIPOS>SUBSTRUCTURE
     1 CLI         1 TEMP              0 ****  ****    0 ROOT
