@<TRIPOS>MOLECULE
CLI
   26    27     1     0     0
SMALL
abcg2


@<TRIPOS>ATOM
      1 O19          2.2680    -1.5290     4.2120 o          1 CLI      -0.763500
      2 C16          1.7550    -0.4840     3.7540 c          1 CLI       0.720000
      3 O18          1.9070     0.6670     4.2080 o          1 CLI      -0.763500
      4 C12          0.8530    -0.6630     2.5230 c3         1 CLI      -0.190400
      5 C6           0.2840     0.6190     1.9250 c3         1 CLI       0.009800
      6 C2          -0.5370     0.3540     0.7020 cc         1 CLI      -0.095400
      7 C1          -0.0660     0.2140    -0.6480 ca         1 CLI      -0.087800
      8 C5          -1.8970     0.1460     0.6480 cd         1 CLI      -0.108300
      9 C11         -2.9690     0.1330     1.7080 c          1 CLI       0.725200
     10 O14         -4.1260    -0.0670     1.2850 o          1 CLI      -0.711500
     11 O15         -2.6170     0.3120     2.8870 o          1 CLI      -0.711500
     12 N7          -2.2730    -0.0950    -0.6480 na         1 CLI      -0.191700
     13 C3          -1.1960    -0.0630    -1.4610 ca         1 CLI      -0.074200
     14 C8          -1.1310    -0.2580    -2.8400 ca         1 CLI      -0.133000
     15 C13          0.1170    -0.1730    -3.4120 ca         1 CLI       0.115000
     16 CL17         0.2850    -0.4010    -5.1250 cl         1 CLI      -0.281000
     17 C9           1.2720     0.0900    -2.6650 ca         1 CLI      -0.178000
     18 C4           1.1700     0.2790    -1.3030 ca         1 CLI       0.188000
     19 CL10         2.6320     0.5890    -0.4230 cl         1 CLI      -0.202000
     20 H121         1.4140    -1.2160     1.7620 hc         1 CLI       0.021200
     21 H122         0.0210    -1.3200     2.7990 hc         1 CLI       0.021200
     22 H61         -0.3410     1.1130     2.6650 hc         1 CLI       0.056700
     23 H62          1.0950     1.3080     1.6900 hc         1 CLI       0.056700
     24 HN7         -3.2270    -0.2700    -0.9200 hn         1 CLI       0.358000
     25 HC8         -2.0160    -0.4640    -3.4260 ha         1 CLI       0.107000
     26 HC9          2.2350     0.1430    -3.1540 ha         1 CLI       0.112000
@<TRIPOS>BOND
     1     1     2 1   
     2     2     3 1   
     3     2     4 1   
     4     4     5 1   
     5     4    20 1   
     6     4    21 1   
     7     5     6 1   
     8     5    22 1   
     9     5    23 1   
    10     6     7 1   
    11     6     8 2   
    12     7    13 ar  
    13     7    18 ar  
    14     8     9 1   
    15     8    12 1   
    16     9    10 1   
    17     9    11 1   
    18    12    13 1   
    19    12    24 1   
    20    13    14 ar  
    21    14    15 ar  
    22    14    25 1   
    23    15    16 1   
    24    15    17 ar  
    25    17    18 ar  
    26    17    26 1   
    27    18    19 1   
@<TRIPOS>SUBSTRUCTURE
     1 CLI         1 TEMP              0 ****  ****    0 ROOT
