@<TRIPOS>MOLECULE
CLK
   32    32     1     0     0
SMALL
abcg2


@<TRIPOS>ATOM
      1 C1           1.0870    -0.5280     1.9610 c3         1 CLK       0.207300
      2 CL1A         2.1520    -1.5980     1.0260 cl         1 CLK      -0.199500
      3 CL1B         2.0300     0.4430     3.0930 cl         1 CLK      -0.199500
      4 C2           0.3580     0.3940     0.9790 c          1 CLK       0.602100
      5 O2           0.9200     1.3380     0.4700 o          1 CLK      -0.538100
      6 N2          -0.9090     0.0190     0.7660 ns         1 CLK      -0.503900
      7 C3          -1.8260     0.7160    -0.1130 c3         1 CLK       0.068700
      8 C4          -3.1480     0.9320     0.6160 c3         1 CLK       0.151600
      9 O4          -3.6260    -0.2840     1.1470 oh         1 CLK      -0.660000
     10 C5          -1.9630     0.0110    -1.4770 c3         1 CLK       0.225600
     11 O5          -2.5490    -1.2630    -1.3800 oh         1 CLK      -0.637000
     12 C6          -0.6400     0.0030    -2.2060 ca         1 CLK      -0.164300
     13 C7          -0.2690     1.0960    -2.9830 ca         1 CLK      -0.053500
     14 C8           0.9580     1.1520    -3.6220 ca         1 CLK      -0.169500
     15 C9           1.8710     0.0990    -3.5000 ca         1 CLK       0.297000
     16 N9           3.1210     0.1700    -4.0850 nv         1 CLK      -1.066000
     17 C10          1.4990    -1.0030    -2.7250 ca         1 CLK      -0.169500
     18 C11          0.2660    -1.0460    -2.0960 ca         1 CLK      -0.053500
     19 H1           0.4170    -1.1590     2.5400 h2         1 CLK       0.092700
     20 H2          -1.2990    -0.7240     1.3280 hn         1 CLK       0.325500
     21 H3          -1.4130     1.7070    -0.3140 h1         1 CLK       0.088700
     22 H4C1        -2.9770     1.6680     1.4070 h1         1 CLK       0.035700
     23 H4C2        -3.8650     1.3780    -0.0850 h1         1 CLK       0.035700
     24 H4          -4.1010    -0.0910     1.9590 ho         1 CLK       0.447000
     25 H5          -2.6660     0.6170    -2.0570 h1         1 CLK       0.076700
     26 HA          -2.0420    -1.8070    -0.7700 ho         1 CLK       0.442000
     27 H7          -0.9560     1.9280    -3.0970 ha         1 CLK       0.103500
     28 H8           1.2110     2.0160    -4.2260 ha         1 CLK       0.111500
     29 H9N1         3.5610    -0.7170    -4.2730 hn         1 CLK       0.445000
     30 H9N2         3.1940     0.7890    -4.8760 hn         1 CLK       0.445000
     31 H10          2.1850    -1.8350    -2.6140 ha         1 CLK       0.111500
     32 H11          0.0280    -1.9230    -1.5050 ha         1 CLK       0.103500
@<TRIPOS>BOND
     1     1     2 1   
     2     1     3 1   
     3     1     4 1   
     4     1    19 1   
     5     4     5 2   
     6     4     6 1   
     7     6     7 1   
     8     6    20 1   
     9     7     8 1   
    10     7    10 1   
    11     7    21 1   
    12     8     9 1   
    13     8    22 1   
    14     8    23 1   
    15     9    24 1   
    16    10    11 1   
    17    10    12 1   
    18    10    25 1   
    19    11    26 1   
    20    12    13 ar  
    21    12    18 ar  
    22    13    14 ar  
    23    13    27 1   
    24    14    15 ar  
    25    14    28 1   
    26    15    16 1   
    27    15    17 ar  
    28    16    29 1   
    29    16    30 1   
    30    17    18 ar  
    31    17    31 1   
    32    18    32 1   
@<TRIPOS>SUBSTRUCTURE
     1 CLK         1 TEMP              0 ****  ****    0 ROOT
