@<TRIPOS>MOLECULE
CLK
   32    32     1     0     0
SMALL
No Charge or Current Charge


@<TRIPOS>ATOM
      1 C1           1.2980    -0.5180     1.9580 c3         1 CLK       0.207300
      2 Cl1A         2.4560    -1.5240     0.9750 cl         1 CLK      -0.199500
      3 Cl1B         2.2380     0.3800     3.2380 cl         1 CLK      -0.199500
      4 C2           0.4550     0.4270     1.0670 c          1 CLK       0.602100
      5 O2           0.8970     1.4690     0.5940 o          1 CLK      -0.538100
      6 N2          -0.8460     0.0160     0.8320 ns         1 CLK      -0.503900
      7 C3          -1.8170     0.7200    -0.0320 c3         1 CLK       0.068700
      8 C4          -3.1900     0.8500     0.6810 c3         1 CLK       0.151600
      9 O4          -3.7360    -0.4500     0.9780 oh         1 CLK      -0.660000
     10 C5          -1.9330     0.0740    -1.4490 c3         1 CLK       0.225600
     11 O5          -2.4750    -1.2480    -1.3340 oh         1 CLK      -0.637000
     12 C6          -0.5990     0.0460    -2.2030 ca         1 CLK      -0.164300
     13 C7          -0.2680     1.1110    -3.0650 ca         1 CLK      -0.053500
     14 C8           0.9590     1.1150    -3.7530 ca         1 CLK      -0.169500
     15 C9           1.8660     0.0600    -3.5850 ca         1 CLK       0.297000
     16 N9           3.0580     0.0660    -4.2560 nv         1 CLK      -1.066000
     17 C10          1.5470    -1.0020    -2.7290 ca         1 CLK      -0.169500
     18 C11          0.3210    -1.0130    -2.0400 ca         1 CLK      -0.053500
     19 H1           0.6380    -1.2140     2.4830 h2         1 CLK       0.092700
     20 H2          -1.1450    -0.8520     1.2620 hn         1 CLK       0.325500
     21 H3          -1.4570     1.7460    -0.1870 h1         1 CLK       0.088700
     22 H4C1        -3.0520     1.4230     1.6080 h1         1 CLK       0.035700
     23 H4C2        -3.8790     1.4170     0.0410 h1         1 CLK       0.035700
     24 H4          -4.5190    -0.3070     1.5590 ho         1 CLK       0.447000
     25 H5          -2.6320     0.6950    -2.0290 h1         1 CLK       0.076700
     26 HA          -3.0400    -1.2080    -0.5210 ho         1 CLK       0.442000
     27 H7          -0.9580     1.9410    -3.2020 ha         1 CLK       0.103500
     28 H8           1.2010     1.9430    -4.4140 ha         1 CLK       0.111500
     29 H9N1         3.6520    -0.7610    -4.2430 hn         1 CLK       0.445000
     30 H9N2         3.2310     0.7610    -4.9810 hn         1 CLK       0.445000
     31 H10          2.2460    -1.8220    -2.5910 ha         1 CLK       0.111500
     32 H11          0.0930    -1.8430    -1.3750 ha         1 CLK       0.103500
@<TRIPOS>BOND
     1     1     2 1   
     2     1     3 1   
     3     1     4 1   
     4     1    19 1   
     5     4     5 2   
     6     4     6 1   
     7     6     7 1   
     8     6    20 1   
     9     7     8 1   
    10     7    10 1   
    11     7    21 1   
    12     8     9 1   
    13     8    22 1   
    14     8    23 1   
    15     9    24 1   
    16    10    11 1   
    17    10    12 1   
    18    10    25 1   
    19    11    26 1   
    20    12    13 ar  
    21    12    18 ar  
    22    13    14 ar  
    23    13    27 1   
    24    14    15 ar  
    25    14    28 1   
    26    15    16 1   
    27    15    17 ar  
    28    16    29 1   
    29    16    30 1   
    30    17    18 ar  
    31    17    31 1   
    32    18    32 1   
@<TRIPOS>SUBSTRUCTURE
     1 CLK         1 TEMP              0 ****  ****    0 ROOT
