@<TRIPOS>MOLECULE
CLL
  123   126     1     0     0
SMALL
No Charge or Current Charge


@<TRIPOS>ATOM
      1 C1          -1.6340    -2.0310     1.7730 c6         1 CLL      -0.066400
      2 C2          -2.0780    -2.1310     0.2940 c6         1 CLL      -0.076400
      3 C3          -2.8180    -0.8510    -0.1410 c6         1 CLL       0.182300
      4 C4          -1.8950     0.3760     0.0470 c6         1 CLL      -0.060200
      5 C5          -1.3590     0.4910     1.4790 c2         1 CLL      -0.114400
      6 C6          -1.4180     1.6680     2.1290 c2         1 CLL      -0.207200
      7 C7          -0.9080     1.9050     3.5380 c6         1 CLL      -0.039200
      8 C8          -0.0230     0.7520     4.0830 c6         1 CLL      -0.042700
      9 C9          -0.6170    -0.6340     3.6670 c6         1 CLL      -0.046700
     10 C10         -0.7330    -0.7850     2.0910 c6         1 CLL       0.004200
     11 C11          0.1490    -1.8150     4.3630 c6         1 CLL      -0.071400
     12 C12          0.2690    -1.6450     5.9040 c6         1 CLL      -0.062400
     13 C13          0.9370    -0.2880     6.3030 c5         1 CLL      -0.037000
     14 C14          0.0880     0.8420     5.6360 c5         1 CLL      -0.064700
     15 C15          0.7120     2.1290     6.2280 c5         1 CLL      -0.071400
     16 C16          0.9920     1.7280     7.7090 c5         1 CLL      -0.077400
     17 C17          0.7390     0.1730     7.8060 c5         1 CLL      -0.053700
     18 C18          2.4470    -0.3260     5.8820 c3         1 CLL      -0.078100
     19 C19          0.6740    -0.9560     1.4170 c3         1 CLL      -0.079100
     20 C20          1.5670    -0.5150     8.9550 c3         1 CLL      -0.047700
     21 C21          1.4440    -2.0610     8.9730 c3         1 CLL      -0.086100
     22 C22          1.2070     0.0940    10.3500 c3         1 CLL      -0.077400
     23 C23          2.1160    -0.3270    11.5330 c3         1 CLL      -0.074400
     24 C24          1.8140     0.4660    12.8290 c3         1 CLL      -0.072400
     25 C25          2.7570     0.1520    14.0240 c3         1 CLL      -0.060700
     26 C26          2.4960     1.1210    15.2000 c3         1 CLL      -0.087100
     27 C27          2.6640    -1.3190    14.4980 c3         1 CLL      -0.087100
     28 C29         -4.4380    -0.4530    -3.5270 c3         1 CLL      -0.139400
     29 C30         -3.6290     0.4830    -4.4540 c3         1 CLL      -0.067400
     30 C31         -3.8830     0.2100    -5.9530 c3         1 CLL      -0.076400
     31 C32         -3.0820     1.1440    -6.8850 c3         1 CLL      -0.074400
     32 C33         -3.3490     0.8740    -8.3820 c3         1 CLL      -0.075400
     33 C34         -2.5460     1.8040    -9.3180 c3         1 CLL      -0.073400
     34 C35         -2.8150     1.5380   -10.8140 c3         1 CLL      -0.043200
     35 C36         -1.9990     2.4480   -11.7130 c2         1 CLL      -0.217200
     36 C37         -0.7500     2.2350   -12.1660 c2         1 CLL      -0.213200
     37 C38          0.1520     1.0530   -11.8620 c3         1 CLL      -0.011000
     38 C39          0.5840     0.3660   -13.1450 c2         1 CLL      -0.214200
     39 C40          1.8210    -0.0470   -13.4730 c2         1 CLL      -0.217200
     40 C41          3.0850     0.0920   -12.6430 c3         1 CLL      -0.043200
     41 C42          3.2320    -1.0440   -11.6090 c3         1 CLL      -0.073400
     42 C43          4.5170    -0.9320   -10.7590 c3         1 CLL      -0.076400
     43 C44          4.6550    -2.0650    -9.7190 c3         1 CLL      -0.075400
     44 C45          5.9370    -1.9550    -8.8710 c3         1 CLL      -0.088100
     45 O1          -4.7600     0.7310    -1.4290 o          1 CLL      -0.490000
     46 O2          -3.2380    -0.9860    -1.5130 os         1 CLL      -0.459100
     47 H11         -2.5370    -2.0010     2.3990 hc         1 CLL       0.044200
     48 H12         -1.1120    -2.9590     2.0410 hc         1 CLL       0.044200
     49 H21         -2.7410    -2.9970     0.1710 hc         1 CLL       0.052200
     50 H22         -1.2120    -2.3090    -0.3570 hc         1 CLL       0.052200
     51 H3          -3.7100    -0.7360     0.4930 h1         1 CLL       0.066700
     52 H41         -1.0540     0.3080    -0.6550 hc         1 CLL       0.058700
     53 H42         -2.4350     1.2920    -0.2260 hc         1 CLL       0.058700
     54 H6          -1.8580     2.5420     1.6460 ha         1 CLL       0.174000
     55 H71         -1.7790     2.0570     4.1910 hc         1 CLL       0.047700
     56 H72         -0.3400     2.8450     3.5640 hc         1 CLL       0.047700
     57 H8           0.9810     0.8610     3.6540 hc         1 CLL       0.054700
     58 H9          -1.6420    -0.6550     4.0660 hc         1 CLL       0.046700
     59 H111        -0.3650    -2.7640     4.1680 hc         1 CLL       0.039200
     60 H112         1.1550    -1.9290     3.9420 hc         1 CLL       0.039200
     61 H121        -0.7330    -1.7170     6.3500 hc         1 CLL       0.040700
     62 H122         0.8380    -2.4950     6.2920 hc         1 CLL       0.040700
     63 H14         -0.9530     0.7690     5.9780 hc         1 CLL       0.043700
     64 H151         0.0320     2.9850     6.1590 hc         1 CLL       0.041700
     65 H152         1.6330     2.4130     5.7070 hc         1 CLL       0.041700
     66 H161         0.3340     2.2760     8.3940 hc         1 CLL       0.040200
     67 H162         2.0190     1.9930     7.9860 hc         1 CLL       0.040200
     68 H17         -0.3100     0.0080     8.0850 hc         1 CLL       0.044700
     69 H181         2.5780    -0.3790     4.7970 hc         1 CLL       0.032367
     70 H182         3.0030     0.5540     6.2230 hc         1 CLL       0.032367
     71 H183         2.9530    -1.1990     6.3100 hc         1 CLL       0.032367
     72 H191         0.6060    -0.9830     0.3240 hc         1 CLL       0.034367
     73 H192         1.3510    -0.1320     1.6650 hc         1 CLL       0.034367
     74 H193         1.1610    -1.8910     1.7140 hc         1 CLL       0.034367
     75 H20          2.6280    -0.2910     8.7830 hc         1 CLL       0.045700
     76 H211         0.3930    -2.3730     8.9520 hc         1 CLL       0.032033
     77 H212         1.9650    -2.5000     8.1180 hc         1 CLL       0.032033
     78 H213         1.9120    -2.5030     9.8580 hc         1 CLL       0.032033
     79 H221         1.2520     1.1870    10.2880 hc         1 CLL       0.038200
     80 H222         0.1660    -0.1550    10.5900 hc         1 CLL       0.038200
     81 H231         1.9810    -1.3940    11.7370 hc         1 CLL       0.037700
     82 H232         3.1660    -0.1760    11.2550 hc         1 CLL       0.037700
     83 H241         1.8870     1.5370    12.6020 hc         1 CLL       0.036700
     84 H242         0.7750     0.2810    13.1290 hc         1 CLL       0.036700
     85 H25          3.7870     0.3250    13.6890 hc         1 CLL       0.043700
     86 H261         3.1990     0.9330    16.0210 hc         1 CLL       0.031533
     87 H262         2.6220     2.1620    14.8820 hc         1 CLL       0.031533
     88 H263         1.4770     1.0000    15.5880 hc         1 CLL       0.031533
     89 H271         1.6350    -1.5760    14.7770 hc         1 CLL       0.031533
     90 H272         2.9940    -2.0110    13.7140 hc         1 CLL       0.031533
     91 H273         3.3060    -1.4840    15.3720 hc         1 CLL       0.031533
     92 H291        -5.5070    -0.3260    -3.7330 hc         1 CLL       0.069700
     93 H292        -4.1230    -1.4820    -3.7400 hc         1 CLL       0.069700
     94 H301        -2.5580     0.3660    -4.2400 hc         1 CLL       0.054200
     95 H302        -3.8870     1.5260    -4.2290 hc         1 CLL       0.054200
     96 H311        -4.9540     0.3250    -6.1630 hc         1 CLL       0.037200
     97 H312        -3.6230    -0.8320    -6.1780 hc         1 CLL       0.037200
     98 H321        -2.0100     1.0240    -6.6820 hc         1 CLL       0.040700
     99 H322        -3.3370     2.1870    -6.6570 hc         1 CLL       0.040700
    100 H331        -4.4200     0.9960    -8.5850 hc         1 CLL       0.036700
    101 H332        -3.0970    -0.1700    -8.6100 hc         1 CLL       0.036700
    102 H341        -1.4740     1.6770    -9.1190 hc         1 CLL       0.040200
    103 H342        -2.7920     2.8480    -9.0900 hc         1 CLL       0.040200
    104 H351        -3.8840     1.6780   -11.0200 hc         1 CLL       0.044200
    105 H352        -2.6050     0.4850   -11.0370 hc         1 CLL       0.044200
    106 H36         -2.5280     3.3570   -12.0090 ha         1 CLL       0.165000
    107 H37         -0.2830     2.9780   -12.8160 ha         1 CLL       0.168000
    108 H381        -0.3520     0.3240   -11.2180 hc         1 CLL       0.050700
    109 H382         1.0170     1.4000   -11.2860 hc         1 CLL       0.050700
    110 H39         -0.2390     0.1980   -13.8440 ha         1 CLL       0.168000
    111 H40          1.9840    -0.5390   -14.4350 ha         1 CLL       0.165000
    112 H411         3.1000     1.0570   -12.1220 hc         1 CLL       0.044700
    113 H412         3.9610     0.0950   -13.3040 hc         1 CLL       0.044700
    114 H421         3.2290    -2.0080   -12.1340 hc         1 CLL       0.039200
    115 H422         2.3590    -1.0390   -10.9440 hc         1 CLL       0.039200
    116 H431         4.5230     0.0350   -10.2410 hc         1 CLL       0.037200
    117 H432         5.3910    -0.9450   -11.4240 hc         1 CLL       0.037200
    118 H441         4.6500    -3.0340   -10.2330 hc         1 CLL       0.036700
    119 H442         3.7840    -2.0530    -9.0510 hc         1 CLL       0.036700
    120 H451         5.9890    -2.7790    -8.1480 hc         1 CLL       0.031367
    121 H452         6.8290    -2.0020    -9.5080 hc         1 CLL       0.031367
    122 H453         5.9560    -1.0100    -8.3150 hc         1 CLL       0.031367
    123 C28         -4.1730    -0.1410    -2.0530 c          1 CLL       0.596100
@<TRIPOS>BOND
     1     1     2 1   
     2     1    10 1   
     3     1    47 1   
     4     1    48 1   
     5     2     3 1   
     6     2    49 1   
     7     2    50 1   
     8     3     4 1   
     9     3    46 1   
    10     3    51 1   
    11     4     5 1   
    12     4    52 1   
    13     4    53 1   
    14     5     6 2   
    15     5    10 1   
    16     6     7 1   
    17     6    54 1   
    18     7     8 1   
    19     7    55 1   
    20     7    56 1   
    21     8     9 1   
    22     8    14 1   
    23     8    57 1   
    24     9    10 1   
    25     9    11 1   
    26     9    58 1   
    27    10    19 1   
    28    11    12 1   
    29    11    59 1   
    30    11    60 1   
    31    12    13 1   
    32    12    61 1   
    33    12    62 1   
    34    13    14 1   
    35    13    17 1   
    36    13    18 1   
    37    14    15 1   
    38    14    63 1   
    39    15    16 1   
    40    15    64 1   
    41    15    65 1   
    42    16    17 1   
    43    16    66 1   
    44    16    67 1   
    45    17    20 1   
    46    17    68 1   
    47    18    69 1   
    48    18    70 1   
    49    18    71 1   
    50    19    72 1   
    51    19    73 1   
    52    19    74 1   
    53    20    21 1   
    54    20    22 1   
    55    20    75 1   
    56    21    76 1   
    57    21    77 1   
    58    21    78 1   
    59    22    23 1   
    60    22    79 1   
    61    22    80 1   
    62    23    24 1   
    63    23    81 1   
    64    23    82 1   
    65    24    25 1   
    66    24    83 1   
    67    24    84 1   
    68    25    26 1   
    69    25    27 1   
    70    25    85 1   
    71    26    86 1   
    72    26    87 1   
    73    26    88 1   
    74    27    89 1   
    75    27    90 1   
    76    27    91 1   
    77    28    29 1   
    78    28    92 1   
    79    28    93 1   
    80    28   123 1   
    81    29    30 1   
    82    29    94 1   
    83    29    95 1   
    84    30    31 1   
    85    30    96 1   
    86    30    97 1   
    87    31    32 1   
    88    31    98 1   
    89    31    99 1   
    90    32    33 1   
    91    32   100 1   
    92    32   101 1   
    93    33    34 1   
    94    33   102 1   
    95    33   103 1   
    96    34    35 1   
    97    34   104 1   
    98    34   105 1   
    99    35    36 2   
   100    35   106 1   
   101    36    37 1   
   102    36   107 1   
   103    37    38 1   
   104    37   108 1   
   105    37   109 1   
   106    38    39 2   
   107    38   110 1   
   108    39    40 1   
   109    39   111 1   
   110    40    41 1   
   111    40   112 1   
   112    40   113 1   
   113    41    42 1   
   114    41   114 1   
   115    41   115 1   
   116    42    43 1   
   117    42   116 1   
   118    42   117 1   
   119    43    44 1   
   120    43   118 1   
   121    43   119 1   
   122    44   120 1   
   123    44   121 1   
   124    44   122 1   
   125    45   123 2   
   126    46   123 1   
@<TRIPOS>SUBSTRUCTURE
     1 CLL         1 TEMP              0 ****  ****    0 ROOT
