@<TRIPOS>MOLECULE
CLL
  123   126     1     0     0
SMALL
bcc


@<TRIPOS>ATOM
      1 C1          -2.0750    -1.3710     3.0150 c6         1 CLL      -0.066400
      2 C2          -2.2100    -1.6890     1.5300 c6         1 CLL      -0.076400
      3 C3          -1.7280    -0.5130     0.7030 c6         1 CLL       0.159100
      4 C4          -0.2880    -0.1650     1.0560 c6         1 CLL      -0.060200
      5 C5          -0.1270     0.0730     2.5350 c2         1 CLL      -0.114400
      6 C6           0.4450     1.1930     2.9730 c2         1 CLL      -0.157200
      7 C7           0.7140     1.5050     4.4070 c6         1 CLL      -0.039200
      8 C8           0.5660     0.2900     5.3140 c6         1 CLL      -0.042700
      9 C9          -0.6890    -0.5070     4.9260 c6         1 CLL      -0.046700
     10 C10         -0.6400    -1.0160     3.4610 c6         1 CLL       0.004200
     11 C11         -0.9860    -1.6220     5.9360 c6         1 CLL      -0.071400
     12 C12         -1.0190    -1.1440     7.3900 c6         1 CLL      -0.062400
     13 C13          0.2820    -0.4360     7.7720 c5         1 CLL      -0.037000
     14 C14          0.4640     0.7170     6.7700 c5         1 CLL      -0.064700
     15 C15          1.5950     1.5510     7.3590 c5         1 CLL      -0.071400
     16 C16          1.3790     1.4290     8.8800 c5         1 CLL      -0.077400
     17 C17          0.2740     0.3600     9.1020 c5         1 CLL      -0.053700
     18 C18          1.4620    -1.4130     7.7490 c3         1 CLL      -0.078100
     19 C19          0.2680    -2.2490     3.3250 c3         1 CLL      -0.079100
     20 C20          0.4560    -0.3910    10.4290 c3         1 CLL      -0.047700
     21 C21         -0.5650    -1.5080    10.6330 c3         1 CLL      -0.086100
     22 C22          0.4030     0.6000    11.6020 c3         1 CLL      -0.077400
     23 C23          0.8910     0.0460    12.9360 c3         1 CLL      -0.074400
     24 C24          0.8690     1.0970    14.0420 c3         1 CLL      -0.072400
     25 C25          1.4660     0.6400    15.3740 c3         1 CLL      -0.060700
     26 C26          1.5470     1.8070    16.3540 c3         1 CLL      -0.087100
     27 C27          0.6850    -0.5140    15.9970 c3         1 CLL      -0.087100
     28 C29         -1.9430    -0.5650    -2.9950 c3         1 CLL      -0.139400
     29 C30         -1.9320     0.4540    -4.1230 c3         1 CLL      -0.067400
     30 C31         -1.9730    -0.2200    -5.4890 c3         1 CLL      -0.076400
     31 C32         -1.9470     0.7740    -6.6430 c3         1 CLL      -0.074400
     32 C33         -2.0020     0.1010    -8.0100 c3         1 CLL      -0.075400
     33 C34         -1.9420     1.0910    -9.1660 c3         1 CLL      -0.073400
     34 C35         -2.0390     0.4140   -10.5340 c3         1 CLL      -0.043200
     35 C36         -1.9640     1.4020   -11.6540 c2         1 CLL      -0.167200
     36 C37         -1.1090     1.4170   -12.6760 c2         1 CLL      -0.163200
     37 C38         -0.0380     0.4120   -12.9930 c3         1 CLL      -0.011000
     38 C39         -0.3460    -0.2850   -14.2870 c2         1 CLL      -0.164200
     39 C40          0.3710    -0.2770   -15.4100 c2         1 CLL      -0.167200
     40 C41          1.6910     0.3820   -15.6580 c3         1 CLL      -0.043200
     41 C42          2.7530    -0.6280   -16.0950 c3         1 CLL      -0.073400
     42 C43          4.1080     0.0090   -16.3770 c3         1 CLL      -0.076400
     43 C44          5.1500    -0.9960   -16.8520 c3         1 CLL      -0.075400
     44 C45          6.5090    -0.3630   -17.1190 c3         1 CLL      -0.088100
     45 O1          -1.8880     1.2270    -1.3860 o          1 CLL      -0.539000
     46 O2          -1.8290    -0.8960    -0.6800 os         1 CLL      -0.435900
     47 H11         -2.7360    -0.5300     3.2530 hc         1 CLL       0.044200
     48 H12         -2.4420    -2.2220     3.5940 hc         1 CLL       0.044200
     49 H21         -3.2570    -1.9040     1.3000 hc         1 CLL       0.052200
     50 H22         -1.6380    -2.5840     1.2700 hc         1 CLL       0.052200
     51 H3          -2.3740     0.3500     0.8890 h1         1 CLL       0.066700
     52 H41          0.3490    -0.9960     0.7320 hc         1 CLL       0.058700
     53 H42          0.0410     0.7190     0.5060 hc         1 CLL       0.058700
     54 H6           0.7540     1.9380     2.2450 ha         1 CLL       0.124000
     55 H71          0.0380     2.3050     4.7400 hc         1 CLL       0.047700
     56 H72          1.7200     1.9260     4.5000 hc         1 CLL       0.047700
     57 H8           1.4510    -0.3450     5.1850 hc         1 CLL       0.054700
     58 H9          -1.5260     0.2060     4.9780 hc         1 CLL       0.046700
     59 H111        -1.9440    -2.0910     5.6990 hc         1 CLL       0.039200
     60 H112        -0.2380    -2.4130     5.8460 hc         1 CLL       0.039200
     61 H121        -1.8520    -0.4450     7.5260 hc         1 CLL       0.040700
     62 H122        -1.2230    -1.9990     8.0370 hc         1 CLL       0.040700
     63 H14         -0.4540     1.3210     6.8450 hc         1 CLL       0.043700
     64 H151         1.5690     2.5870     7.0210 hc         1 CLL       0.041700
     65 H152         2.5670     1.1490     7.0620 hc         1 CLL       0.041700
     66 H161         1.0940     2.3860     9.3180 hc         1 CLL       0.040200
     67 H162         2.3010     1.1240     9.3830 hc         1 CLL       0.040200
     68 H17         -0.6970     0.8750     9.1490 hc         1 CLL       0.044700
     69 H181         1.6360    -1.8370     6.7600 hc         1 CLL       0.032367
     70 H182         2.3960    -0.9400     8.0590 hc         1 CLL       0.032367
     71 H183         1.2860    -2.2490     8.4270 hc         1 CLL       0.032367
     72 H191         0.4440    -2.5160     2.2840 hc         1 CLL       0.034367
     73 H192         1.2460    -2.0730     3.7760 hc         1 CLL       0.034367
     74 H193        -0.1700    -3.1250     3.8040 hc         1 CLL       0.034367
     75 H20          1.4590    -0.8400    10.4260 hc         1 CLL       0.045700
     76 H211        -1.5840    -1.1340    10.5070 hc         1 CLL       0.032033
     77 H212        -0.4230    -2.3290     9.9330 hc         1 CLL       0.032033
     78 H213        -0.4930    -1.9350    11.6340 hc         1 CLL       0.032033
     79 H221         1.0090     1.4790    11.3650 hc         1 CLL       0.038200
     80 H222        -0.6260     0.9670    11.7110 hc         1 CLL       0.038200
     81 H231         0.2890    -0.8150    13.2360 hc         1 CLL       0.037700
     82 H232         1.9150    -0.3260    12.8150 hc         1 CLL       0.037700
     83 H241         1.4200     1.9800    13.6980 hc         1 CLL       0.036700
     84 H242        -0.1630     1.4300    14.2080 hc         1 CLL       0.036700
     85 H25          2.4880     0.2920    15.1800 hc         1 CLL       0.043700
     86 H261         2.0170     1.5060    17.2920 hc         1 CLL       0.031533
     87 H262         2.1270     2.6360    15.9450 hc         1 CLL       0.031533
     88 H263         0.5500     2.1860    16.5920 hc         1 CLL       0.031533
     89 H271        -0.3440    -0.2130    16.2110 hc         1 CLL       0.031533
     90 H272         0.6450    -1.3880    15.3460 hc         1 CLL       0.031533
     91 H273         1.1390    -0.8270    16.9390 hc         1 CLL       0.031533
     92 H291        -2.8410    -1.1900    -3.0520 hc         1 CLL       0.069700
     93 H292        -1.1010    -1.2570    -3.0970 hc         1 CLL       0.069700
     94 H301        -1.0350     1.0760    -4.0520 hc         1 CLL       0.054200
     95 H302        -2.7850     1.1290    -4.0240 hc         1 CLL       0.054200
     96 H311        -2.8730    -0.8410    -5.5630 hc         1 CLL       0.037200
     97 H312        -1.1240    -0.9060    -5.5840 hc         1 CLL       0.037200
     98 H321        -1.0420     1.3860    -6.5750 hc         1 CLL       0.040700
     99 H322        -2.7900     1.4670    -6.5450 hc         1 CLL       0.040700
    100 H331        -2.9200    -0.4920    -8.0850 hc         1 CLL       0.036700
    101 H332        -1.1740    -0.6100    -8.1000 hc         1 CLL       0.036700
    102 H341        -1.0080     1.6610    -9.1100 hc         1 CLL       0.040200
    103 H342        -2.7510     1.8210    -9.0650 hc         1 CLL       0.040200
    104 H351        -2.9920    -0.1250   -10.5890 hc         1 CLL       0.044200
    105 H352        -1.2560    -0.3420   -10.6240 hc         1 CLL       0.044200
    106 H36         -2.6910     2.2090   -11.6030 ha         1 CLL       0.115000
    107 H37         -1.1950     2.2270   -13.3950 ha         1 CLL       0.118000
    108 H381         0.0460    -0.3330   -12.1970 hc         1 CLL       0.050700
    109 H382         0.9290     0.9180   -13.0460 hc         1 CLL       0.050700
    110 H39         -1.2800    -0.8410   -14.2890 ha         1 CLL       0.118000
    111 H40         -0.0270    -0.8330   -16.2550 ha         1 CLL       0.115000
    112 H411         2.0380     0.9220   -14.7750 hc         1 CLL       0.044700
    113 H412         1.5760     1.1320   -16.4500 hc         1 CLL       0.044700
    114 H421         2.4040    -1.1490   -16.9920 hc         1 CLL       0.039200
    115 H422         2.8640    -1.3940   -15.3210 hc         1 CLL       0.039200
    116 H431         4.4700     0.5090   -15.4720 hc         1 CLL       0.037200
    117 H432         3.9910     0.7950   -17.1320 hc         1 CLL       0.037200
    118 H441         4.7900    -1.4840   -17.7620 hc         1 CLL       0.036700
    119 H442         5.2550    -1.7890   -16.1050 hc         1 CLL       0.036700
    120 H451         7.2300    -1.1010   -17.4750 hc         1 CLL       0.031367
    121 H452         6.4360     0.4200   -17.8750 hc         1 CLL       0.031367
    122 H453         6.9200     0.0900   -16.2150 hc         1 CLL       0.031367
    123 C28         -1.8840     0.0430    -1.6190 c          1 CLL       0.645100
@<TRIPOS>BOND
     1     1     2 1   
     2     1    10 1   
     3     1    47 1   
     4     1    48 1   
     5     2     3 1   
     6     2    49 1   
     7     2    50 1   
     8     3     4 1   
     9     3    46 1   
    10     3    51 1   
    11     4     5 1   
    12     4    52 1   
    13     4    53 1   
    14     5     6 2   
    15     5    10 1   
    16     6     7 1   
    17     6    54 1   
    18     7     8 1   
    19     7    55 1   
    20     7    56 1   
    21     8     9 1   
    22     8    14 1   
    23     8    57 1   
    24     9    10 1   
    25     9    11 1   
    26     9    58 1   
    27    10    19 1   
    28    11    12 1   
    29    11    59 1   
    30    11    60 1   
    31    12    13 1   
    32    12    61 1   
    33    12    62 1   
    34    13    14 1   
    35    13    17 1   
    36    13    18 1   
    37    14    15 1   
    38    14    63 1   
    39    15    16 1   
    40    15    64 1   
    41    15    65 1   
    42    16    17 1   
    43    16    66 1   
    44    16    67 1   
    45    17    20 1   
    46    17    68 1   
    47    18    69 1   
    48    18    70 1   
    49    18    71 1   
    50    19    72 1   
    51    19    73 1   
    52    19    74 1   
    53    20    21 1   
    54    20    22 1   
    55    20    75 1   
    56    21    76 1   
    57    21    77 1   
    58    21    78 1   
    59    22    23 1   
    60    22    79 1   
    61    22    80 1   
    62    23    24 1   
    63    23    81 1   
    64    23    82 1   
    65    24    25 1   
    66    24    83 1   
    67    24    84 1   
    68    25    26 1   
    69    25    27 1   
    70    25    85 1   
    71    26    86 1   
    72    26    87 1   
    73    26    88 1   
    74    27    89 1   
    75    27    90 1   
    76    27    91 1   
    77    28    29 1   
    78    28    92 1   
    79    28    93 1   
    80    28   123 1   
    81    29    30 1   
    82    29    94 1   
    83    29    95 1   
    84    30    31 1   
    85    30    96 1   
    86    30    97 1   
    87    31    32 1   
    88    31    98 1   
    89    31    99 1   
    90    32    33 1   
    91    32   100 1   
    92    32   101 1   
    93    33    34 1   
    94    33   102 1   
    95    33   103 1   
    96    34    35 1   
    97    34   104 1   
    98    34   105 1   
    99    35    36 2   
   100    35   106 1   
   101    36    37 1   
   102    36   107 1   
   103    37    38 1   
   104    37   108 1   
   105    37   109 1   
   106    38    39 2   
   107    38   110 1   
   108    39    40 1   
   109    39   111 1   
   110    40    41 1   
   111    40   112 1   
   112    40   113 1   
   113    41    42 1   
   114    41   114 1   
   115    41   115 1   
   116    42    43 1   
   117    42   116 1   
   118    42   117 1   
   119    43    44 1   
   120    43   118 1   
   121    43   119 1   
   122    44   120 1   
   123    44   121 1   
   124    44   122 1   
   125    45   123 2   
   126    46   123 1   
@<TRIPOS>SUBSTRUCTURE
     1 CLL         1 TEMP              0 ****  ****    0 ROOT
