@<TRIPOS>MOLECULE
CLM
   32    32     1     0     0
SMALL
abcg2


@<TRIPOS>ATOM
      1 C1           1.4920    -0.3660     1.8360 c3         1 CLM       0.204300
      2 CL1          2.6070    -0.8760     0.5620 cl         1 CLM      -0.190500
      3 CL2          2.3480     0.5820     3.0640 cl         1 CLM      -0.190500
      4 C2           0.4070     0.5130     1.2130 c          1 CLM       0.602100
      5 O2           0.6930     1.5100     0.5870 o          1 CLM      -0.541100
      6 N2          -0.8320     0.0590     1.4430 ns         1 CLM      -0.509900
      7 C3          -2.0280     0.7080     0.9500 c3         1 CLM       0.050700
      8 C4          -3.0780     0.7550     2.0600 c3         1 CLM       0.150600
      9 O4          -3.2630    -0.5090     2.6620 oh         1 CLM      -0.661000
     10 C5          -2.5470     0.0500    -0.3460 c3         1 CLM       0.209600
     11 O5          -3.1280    -1.2090    -0.1460 oh         1 CLM      -0.635000
     12 C6          -1.4490     0.0260    -1.3840 ca         1 CLM      -0.068300
     13 C7          -0.6200    -1.0800    -1.5340 ca         1 CLM      -0.108000
     14 C8           0.4260    -1.0620    -2.4390 ca         1 CLM      -0.038000
     15 C9           0.6300     0.0740    -3.2070 ca         1 CLM      -0.171200
     16 N9           1.7220     0.0980    -4.1640 no         1 CLM       0.695200
     17 O9A          1.8930     1.1060    -4.8090 o          1 CLM      -0.399500
     18 O9B          2.4160    -0.8870    -4.2630 o          1 CLM      -0.399500
     19 C10         -0.1920     1.1870    -3.0880 ca         1 CLM      -0.038000
     20 C11         -1.2260     1.1510    -2.1730 ca         1 CLM      -0.108000
     21 H1           1.1060    -1.2620     2.3170 h2         1 CLM       0.093700
     22 HN2         -0.9540    -0.7400     2.0490 hn         1 CLM       0.322500
     23 H3          -1.7740     1.7400     0.7010 h1         1 CLM       0.092700
     24 H41         -4.0220     1.1040     1.6310 h1         1 CLM       0.052700
     25 H42         -2.7650     1.5000     2.7950 h1         1 CLM       0.052700
     26 HO4         -2.9860    -0.4570     3.5800 ho         1 CLM       0.448000
     27 H5          -3.3480     0.7000    -0.7150 h1         1 CLM       0.083700
     28 HO5         -2.6220    -1.7170     0.4950 ho         1 CLM       0.451000
     29 H7          -0.7770    -1.9750    -0.9480 ha         1 CLM       0.123000
     30 H8           1.0670    -1.9260    -2.5350 ha         1 CLM       0.151500
     31 H10         -0.0380     2.0670    -3.6960 ha         1 CLM       0.151500
     32 H11         -1.8700     2.0160    -2.0750 ha         1 CLM       0.123000
@<TRIPOS>BOND
     1     1     2 1   
     2     1     3 1   
     3     1     4 1   
     4     1    21 1   
     5     4     5 2   
     6     4     6 1   
     7     6     7 1   
     8     6    22 1   
     9     7     8 1   
    10     7    10 1   
    11     7    23 1   
    12     8     9 1   
    13     8    24 1   
    14     8    25 1   
    15     9    26 1   
    16    10    11 1   
    17    10    12 1   
    18    10    27 1   
    19    11    28 1   
    20    12    13 ar  
    21    12    20 ar  
    22    13    14 ar  
    23    13    29 1   
    24    14    15 ar  
    25    14    30 1   
    26    15    16 1   
    27    15    19 ar  
    28    16    17 1   
    29    16    18 1   
    30    19    20 ar  
    31    19    31 1   
    32    20    32 1   
@<TRIPOS>SUBSTRUCTURE
     1 CLM         1 TEMP              0 ****  ****    0 ROOT
