@<TRIPOS>MOLECULE
CLM
   32    32     1     0     0
SMALL
No Charge or Current Charge


@<TRIPOS>ATOM
      1 C1           1.6410    -0.4120     2.0120 c3         1 CLM       0.204300
      2 Cl1          2.4970    -1.3840     0.7310 cl         1 CLM      -0.190500
      3 Cl2          2.8770     0.5400     2.9560 cl         1 CLM      -0.190500
      4 C2           0.5350     0.4870     1.4080 c          1 CLM       0.602100
      5 O2           0.7750     1.5340     0.8170 o          1 CLM      -0.541100
      6 N2          -0.7610     0.0260     1.5730 ns         1 CLM      -0.509900
      7 C3          -1.9710     0.6760     1.0250 c3         1 CLM       0.050700
      8 C4          -3.0870     0.7510     2.1020 c3         1 CLM       0.150600
      9 O4          -3.4640    -0.5710     2.5350 oh         1 CLM      -0.661000
     10 C5          -2.4510     0.0120    -0.3030 c3         1 CLM       0.209600
     11 O5          -2.8930    -1.3270    -0.0350 oh         1 CLM      -0.635000
     12 C6          -1.3740     0.0280    -1.3950 ca         1 CLM      -0.068300
     13 C7          -0.4270    -1.0120    -1.5160 ca         1 CLM      -0.108000
     14 C8           0.5670    -0.9670    -2.5070 ca         1 CLM      -0.038000
     15 C9           0.6350     0.1250    -3.4030 ca         1 CLM      -0.171200
     16 N9           1.6960     0.1780    -4.4600 no         1 CLM       0.695200
     17 O9A          1.7140     1.1530    -5.2230 o          1 CLM      -0.399500
     18 O9B          2.5070    -0.7560    -4.5230 o          1 CLM      -0.399500
     19 C10         -0.3140     1.1660    -3.2840 ca         1 CLM      -0.038000
     20 C11         -1.3060     1.1150    -2.2890 ca         1 CLM      -0.108000
     21 H1           1.1940    -1.1260     2.7100 h2         1 CLM       0.093700
     22 HN2         -0.8840    -0.8440     2.0810 hn         1 CLM       0.322500
     23 H3          -1.7160     1.7160     0.7780 h1         1 CLM       0.092700
     24 H41         -3.9550     1.2840     1.6880 h1         1 CLM       0.052700
     25 H42         -2.7160     1.3390     2.9530 h1         1 CLM       0.052700
     26 HO4         -4.0500    -0.4620     3.3190 ho         1 CLM       0.448000
     27 H5          -3.3040     0.6020    -0.6690 h1         1 CLM       0.083700
     28 HO5         -3.1940    -1.2990     0.9100 ho         1 CLM       0.451000
     29 H7          -0.4550    -1.8580    -0.8340 ha         1 CLM       0.123000
     30 H8           1.2840    -1.7850    -2.5680 ha         1 CLM       0.151500
     31 H10         -0.2900     2.0220    -3.9560 ha         1 CLM       0.151500
     32 H11         -2.0210     1.9300    -2.2100 ha         1 CLM       0.123000
@<TRIPOS>BOND
     1     1     2 1   
     2     1     3 1   
     3     1     4 1   
     4     1    21 1   
     5     4     5 2   
     6     4     6 1   
     7     6     7 1   
     8     6    22 1   
     9     7     8 1   
    10     7    10 1   
    11     7    23 1   
    12     8     9 1   
    13     8    24 1   
    14     8    25 1   
    15     9    26 1   
    16    10    11 1   
    17    10    12 1   
    18    10    27 1   
    19    11    28 1   
    20    12    13 ar  
    21    12    20 ar  
    22    13    14 ar  
    23    13    29 1   
    24    14    15 ar  
    25    14    30 1   
    26    15    16 1   
    27    15    19 ar  
    28    16    17 1   
    29    16    18 1   
    30    19    20 ar  
    31    19    31 1   
    32    20    32 1   
@<TRIPOS>SUBSTRUCTURE
     1 CLM         1 TEMP              0 ****  ****    0 ROOT
