@<TRIPOS>MOLECULE
CLQ
   48    49     1     0     0
SMALL
bcc


@<TRIPOS>ATOM
      1 CL           2.3370     0.5520    -5.5260 cl         1 CLQ      -0.109400
      2 N1          -1.7360    -1.5960    -3.4610 nb         1 CLQ      -0.704000
      3 C1          -2.5770    -1.7390    -2.4660 ca         1 CLQ       0.466200
      4 C2          -2.5370    -1.0370    -1.2610 ca         1 CLQ      -0.374300
      5 C3          -1.5360    -0.0980    -1.0430 ca         1 CLQ       0.255600
      6 C4          -0.5820     0.0800    -2.1060 ca         1 CLQ      -0.204300
      7 C5           0.5050     0.9740    -2.0260 ca         1 CLQ      -0.094000
      8 C6           1.3930     1.1210    -3.0580 ca         1 CLQ      -0.140000
      9 C7           1.2120     0.3570    -4.2230 ca         1 CLQ       0.042400
     10 C8           0.1790    -0.5290    -4.3430 ca         1 CLQ      -0.172300
     11 C9          -0.7420    -0.6930    -3.2840 ca         1 CLQ       0.441600
     12 N2          -1.4290     0.6030     0.1010 nu         1 CLQ      -0.765600
     13 C10         -2.3880     0.5670     1.1920 c3         1 CLQ       0.234500
     14 C11         -1.7020     1.0280     2.4740 c3         1 CLQ      -0.089400
     15 C12         -0.5320     0.1510     2.9050 c3         1 CLQ      -0.077400
     16 C13          0.0670     0.6270     4.2220 c3         1 CLQ       0.169800
     17 N3           1.2290    -0.1440     4.6360 n3         1 CLQ      -0.724600
     18 C14          2.4250     0.2650     3.9140 c3         1 CLQ       0.169800
     19 C15          3.5010    -0.8090     3.8890 c3         1 CLQ      -0.089100
     20 C16          1.4250    -0.0850     6.0780 c3         1 CLQ       0.169800
     21 C17          0.4870    -1.0060     6.8420 c3         1 CLQ      -0.089100
     22 C18         -3.6240     1.4070     0.8850 c3         1 CLQ      -0.119100
     23 H21         -3.3000    -1.2340    -0.5210 ha         1 CLQ       0.140000
     24 H51          0.6750     1.5690    -1.1390 ha         1 CLQ       0.122000
     25 H61          2.2210     1.8100    -2.9780 ha         1 CLQ       0.146000
     26 H81          0.0440    -1.1210    -5.2390 ha         1 CLQ       0.164000
     27 HN21        -0.7860     1.3770     0.1260 hn         1 CLQ       0.429800
     28 H101        -2.6910    -0.4740     1.3380 h1         1 CLQ       0.065700
     29 H111        -2.4580     1.0460     3.2650 hc         1 CLQ       0.044700
     30 H112        -1.3680     2.0650     2.3530 hc         1 CLQ       0.044700
     31 H121         0.2290     0.1460     2.1200 hc         1 CLQ       0.053200
     32 H122        -0.8670    -0.8840     3.0200 hc         1 CLQ       0.053200
     33 H131        -0.7040     0.5400     4.9910 h1         1 CLQ       0.027700
     34 H132         0.3040     1.7030     4.1560 h1         1 CLQ       0.027700
     35 H141         2.8380     1.2040     4.3210 h1         1 CLQ       0.027950
     36 H142         2.1470     0.4860     2.8820 h1         1 CLQ       0.027950
     37 H151         4.3660    -0.4630     3.3220 hc         1 CLQ       0.037033
     38 H152         3.8540    -1.0720     4.8870 hc         1 CLQ       0.037033
     39 H153         3.1280    -1.7170     3.4140 hc         1 CLQ       0.037033
     40 H161         2.4490    -0.3850     6.3020 h1         1 CLQ       0.027950
     41 H162         1.3260     0.9480     6.4510 h1         1 CLQ       0.027950
     42 H171         0.6670    -0.9260     7.9150 hc         1 CLQ       0.037033
     43 H172        -0.5630    -0.7660     6.6720 hc         1 CLQ       0.037033
     44 H173         0.6450    -2.0440     6.5490 hc         1 CLQ       0.037033
     45 H181        -3.3550     2.4580     0.7700 hc         1 CLQ       0.045033
     46 H182        -4.1120     1.0800    -0.0340 hc         1 CLQ       0.045033
     47 H183        -4.3490     1.3290     1.6950 hc         1 CLQ       0.045033
     48 H11         -3.3730    -2.4630    -2.6090 h4         1 CLQ       0.013100
@<TRIPOS>BOND
     1     1     9 1   
     2     2     3 ar  
     3     2    11 ar  
     4     3     4 ar  
     5     3    48 1   
     6     4     5 ar  
     7     4    23 1   
     8     5     6 ar  
     9     5    12 1   
    10     6     7 ar  
    11     6    11 ar  
    12     7     8 ar  
    13     7    24 1   
    14     8     9 ar  
    15     8    25 1   
    16     9    10 ar  
    17    10    11 ar  
    18    10    26 1   
    19    12    13 1   
    20    12    27 1   
    21    13    14 1   
    22    13    22 1   
    23    13    28 1   
    24    14    15 1   
    25    14    29 1   
    26    14    30 1   
    27    15    16 1   
    28    15    31 1   
    29    15    32 1   
    30    16    17 1   
    31    16    33 1   
    32    16    34 1   
    33    17    18 1   
    34    17    20 1   
    35    18    19 1   
    36    18    35 1   
    37    18    36 1   
    38    19    37 1   
    39    19    38 1   
    40    19    39 1   
    41    20    21 1   
    42    20    40 1   
    43    20    41 1   
    44    21    42 1   
    45    21    43 1   
    46    21    44 1   
    47    22    45 1   
    48    22    46 1   
    49    22    47 1   
@<TRIPOS>SUBSTRUCTURE
     1 CLQ         1 TEMP              0 ****  ****    0 ROOT
