@<TRIPOS>MOLECULE
CLQ
   48    49     1     0     0
SMALL
No Charge or Current Charge


@<TRIPOS>ATOM
      1 Cl           3.7090     1.1110    -2.8780 cl         1 CLQ      -0.201000
      2 N1          -0.3640    -1.9180    -2.2670 nb         1 CLQ      -0.704000
      3 C1          -1.6020    -2.1790    -1.8020 ca         1 CLQ       0.400900
      4 C2          -2.3500    -1.2460    -1.0880 ca         1 CLQ      -0.291000
      5 C3          -1.8080     0.0130    -0.8420 ca         1 CLQ       0.394000
      6 C4          -0.5150     0.3070    -1.3230 ca         1 CLQ      -0.139000
      7 C5           0.1050     1.5610    -1.0940 ca         1 CLQ      -0.076000
      8 C6           1.4010     1.8040    -1.5740 ca         1 CLQ      -0.122000
      9 C7           2.0830     0.8060    -2.2800 ca         1 CLQ       0.134000
     10 C8           1.4750    -0.4360    -2.5080 ca         1 CLQ      -0.089000
     11 C9           0.1790    -0.7030    -2.0350 ca         1 CLQ       0.311000
     12 N2          -2.5630     0.9400    -0.1230 nu         1 CLQ      -0.959200
     13 C10         -3.1620     0.6930     1.1960 c3         1 CLQ       0.234500
     14 C11         -2.1650     1.0480     2.3300 c3         1 CLQ      -0.089400
     15 C12         -0.9150     0.1350     2.3990 c3         1 CLQ      -0.077400
     16 C13          0.0260     0.4840     3.5760 c3         1 CLQ       0.169800
     17 N3           1.1720    -0.4520     3.7820 n3         1 CLQ      -0.724600
     18 C14          2.0800    -0.5210     2.5980 c3         1 CLQ       0.169800
     19 C15          3.1790    -1.6020     2.6650 c3         1 CLQ      -0.089100
     20 C16          1.9080    -0.1810     5.0520 c3         1 CLQ       0.169800
     21 C17          1.0700    -0.3050     6.3430 c3         1 CLQ      -0.089100
     22 C18         -4.4590     1.5160     1.2950 c3         1 CLQ      -0.119100
     23 H21         -3.3450    -1.5040    -0.7430 ha         1 CLQ       0.122000
     24 H51         -0.3990     2.3490    -0.5400 ha         1 CLQ       0.104000
     25 H61          1.8770     2.7650    -1.3950 ha         1 CLQ       0.128000
     26 H81          2.0140    -1.2030    -3.0540 ha         1 CLQ       0.146000
     27 HN21        -2.2680     1.9020    -0.2750 hn         1 CLQ       0.485000
     28 H101        -3.4410    -0.3660     1.2950 h1         1 CLQ       0.065700
     29 H111        -2.6930     0.9790     3.2890 hc         1 CLQ       0.044700
     30 H112        -1.8460     2.0920     2.2240 hc         1 CLQ       0.044700
     31 H121        -0.3630     0.2290     1.4610 hc         1 CLQ       0.053200
     32 H122        -1.2330    -0.9110     2.4890 hc         1 CLQ       0.053200
     33 H131        -0.6040     0.5010     4.4730 h1         1 CLQ       0.027700
     34 H132         0.4030     1.5060     3.4310 h1         1 CLQ       0.027700
     35 H141         2.5580     0.4550     2.4320 h1         1 CLQ       0.027950
     36 H142         1.5000    -0.7490     1.6960 h1         1 CLQ       0.027950
     37 H151         3.6710    -1.6940     1.6900 hc         1 CLQ       0.037033
     38 H152         3.9500    -1.3480     3.4010 hc         1 CLQ       0.037033
     39 H153         2.7490    -2.5770     2.9230 hc         1 CLQ       0.037033
     40 H161         2.7320    -0.8960     5.1630 h1         1 CLQ       0.027950
     41 H162         2.3580     0.8210     5.0210 h1         1 CLQ       0.027950
     42 H171         1.7270    -0.2680     7.2190 hc         1 CLQ       0.037033
     43 H172         0.3500     0.5160     6.4360 hc         1 CLQ       0.037033
     44 H173         0.5270    -1.2570     6.3630 hc         1 CLQ       0.037033
     45 H181        -4.2520     2.5900     1.2170 hc         1 CLQ       0.045033
     46 H182        -5.1540     1.2380     0.4940 hc         1 CLQ       0.045033
     47 H183        -4.9580     1.3310     2.2540 hc         1 CLQ       0.045033
     48 H11         -2.0020    -3.1690    -2.0140 h4         1 CLQ       0.013100
@<TRIPOS>BOND
     1     1     9 1   
     2     2     3 ar  
     3     2    11 ar  
     4     3     4 ar  
     5     3    48 1   
     6     4     5 ar  
     7     4    23 1   
     8     5     6 ar  
     9     5    12 1   
    10     6     7 ar  
    11     6    11 ar  
    12     7     8 ar  
    13     7    24 1   
    14     8     9 ar  
    15     8    25 1   
    16     9    10 ar  
    17    10    11 ar  
    18    10    26 1   
    19    12    13 1   
    20    12    27 1   
    21    13    14 1   
    22    13    22 1   
    23    13    28 1   
    24    14    15 1   
    25    14    29 1   
    26    14    30 1   
    27    15    16 1   
    28    15    31 1   
    29    15    32 1   
    30    16    17 1   
    31    16    33 1   
    32    16    34 1   
    33    17    18 1   
    34    17    20 1   
    35    18    19 1   
    36    18    35 1   
    37    18    36 1   
    38    19    37 1   
    39    19    38 1   
    40    19    39 1   
    41    20    21 1   
    42    20    40 1   
    43    20    41 1   
    44    21    42 1   
    45    21    43 1   
    46    21    44 1   
    47    22    45 1   
    48    22    46 1   
    49    22    47 1   
@<TRIPOS>SUBSTRUCTURE
     1 CLQ         1 TEMP              0 ****  ****    0 ROOT
