@<TRIPOS>MOLECULE
CLR
   74    77     1     0     0
SMALL
No Charge or Current Charge


@<TRIPOS>ATOM
      1 C1           1.4600    -0.9040    -4.6470 c6         1 CLR      -0.067400
      2 C2           1.4990    -0.8590    -6.1940 c6         1 CLR      -0.072400
      3 C3           0.0920    -1.0900    -6.7820 c6         1 CLR       0.173300
      4 C4          -0.8900    -0.0250    -6.2450 c6         1 CLR      -0.073200
      5 C5          -0.9160     0.0290    -4.7130 c2         1 CLR      -0.107400
      6 C6          -2.0900     0.0360    -4.0570 c2         1 CLR      -0.216200
      7 C7          -2.2380     0.1070    -2.5480 c6         1 CLR      -0.037200
      8 C8          -0.9270     0.4910    -1.8130 c6         1 CLR      -0.041700
      9 C9           0.2930    -0.2440    -2.4600 c6         1 CLR      -0.046700
     10 C10          0.4550     0.1130    -3.9990 c6         1 CLR       0.004200
     11 C11          1.6020    -0.0310    -1.6190 c6         1 CLR      -0.071400
     12 C12          1.4230    -0.3580    -0.1100 c6         1 CLR      -0.061400
     13 C13          0.2530     0.4520     0.5380 c5         1 CLR      -0.036000
     14 C14         -1.0280     0.1350    -0.2990 c5         1 CLR      -0.065700
     15 C15         -2.1450     0.8270     0.5180 c5         1 CLR      -0.072400
     16 C16         -1.7270     0.5400     1.9930 c5         1 CLR      -0.077400
     17 C17         -0.2770    -0.0820     1.9320 c5         1 CLR      -0.054700
     18 C18          0.6560     1.9670     0.5930 c3         1 CLR      -0.078100
     19 C19          0.9740     1.5800    -4.2040 c3         1 CLR      -0.079100
     20 C20          0.5630     0.1800     3.2380 c3         1 CLR      -0.046700
     21 C21          2.0360    -0.2970     3.1400 c3         1 CLR      -0.086100
     22 C22         -0.1370    -0.4320     4.4940 c3         1 CLR      -0.077400
     23 C23          0.4210     0.0260     5.8660 c3         1 CLR      -0.074400
     24 C24         -0.4250    -0.4870     7.0570 c3         1 CLR      -0.073400
     25 C25          0.0270     0.0290     8.4510 c3         1 CLR      -0.059700
     26 C26         -0.9790    -0.3930     9.5470 c3         1 CLR      -0.087100
     27 C27          1.4610    -0.4160     8.8260 c3         1 CLR      -0.087100
     28 O1           0.1440    -1.0390    -8.2110 oh         1 CLR      -0.660000
     29 H11          1.1950    -1.9270    -4.3430 hc         1 CLR       0.042200
     30 H12          2.4770    -0.7320    -4.2700 hc         1 CLR       0.042200
     31 H21          2.1840    -1.6330    -6.5640 hc         1 CLR       0.052700
     32 H22          1.9040     0.1020    -6.5400 hc         1 CLR       0.052700
     33 H3          -0.2600    -2.0810    -6.4590 h1         1 CLR       0.029700
     34 H41         -1.8960    -0.2280    -6.6350 hc         1 CLR       0.049700
     35 H42         -0.6120     0.9620    -6.6380 hc         1 CLR       0.049700
     36 H6          -3.0290    -0.0110    -4.6100 ha         1 CLR       0.167000
     37 H71         -2.5990    -0.8700    -2.1960 hc         1 CLR       0.046700
     38 H72         -3.0240     0.8320    -2.2950 hc         1 CLR       0.046700
     39 H8          -0.7900     1.5760    -1.9070 hc         1 CLR       0.054700
     40 H9           0.0630    -1.3180    -2.4030 hc         1 CLR       0.045700
     41 H111         2.4070    -0.6670    -2.0080 hc         1 CLR       0.039700
     42 H112         1.9660     0.9980    -1.7150 hc         1 CLR       0.039700
     43 H121         1.2430    -1.4360     0.0040 hc         1 CLR       0.040200
     44 H122         2.3730    -0.1520     0.3940 hc         1 CLR       0.040200
     45 H14         -1.2100    -0.9490    -0.2940 hc         1 CLR       0.042700
     46 H151        -3.1360     0.4180     0.2880 hc         1 CLR       0.041200
     47 H152        -2.1930     1.9030     0.3150 hc         1 CLR       0.041200
     48 H161        -2.4310    -0.1500     2.4720 hc         1 CLR       0.040700
     49 H162        -1.7500     1.4660     2.5810 hc         1 CLR       0.040700
     50 H17         -0.3690    -1.1740     1.8760 hc         1 CLR       0.043700
     51 H181         0.7640     2.4080    -0.4030 hc         1 CLR       0.032367
     52 H182        -0.0750     2.5790     1.1300 hc         1 CLR       0.032367
     53 H183         1.6140     2.1010     1.1080 hc         1 CLR       0.032367
     54 H191         1.0120     1.8610    -5.2610 hc         1 CLR       0.034700
     55 H192         0.3310     2.3170    -3.7100 hc         1 CLR       0.034700
     56 H193         1.9910     1.7150    -3.8200 hc         1 CLR       0.034700
     57 H20          0.5980     1.2650     3.3990 hc         1 CLR       0.045700
     58 H211         2.0920    -1.3290     2.7730 hc         1 CLR       0.032367
     59 H212         2.6090     0.3520     2.4720 hc         1 CLR       0.032367
     60 H213         2.5510    -0.2520     4.1040 hc         1 CLR       0.032367
     61 H221        -0.0920    -1.5260     4.4340 hc         1 CLR       0.037200
     62 H222        -1.1990    -0.1690     4.4750 hc         1 CLR       0.037200
     63 H231         0.4530     1.1220     5.8950 hc         1 CLR       0.038700
     64 H232         1.4470    -0.3330     5.9840 hc         1 CLR       0.038700
     65 H241        -0.4160    -1.5850     7.0570 hc         1 CLR       0.036200
     66 H242        -1.4680    -0.1850     6.8960 hc         1 CLR       0.036200
     67 H25          0.0220     1.1260     8.4170 hc         1 CLR       0.043700
     68 H261        -0.6880     0.0210    10.5210 hc         1 CLR       0.031533
     69 H262        -1.9850    -0.0260     9.3130 hc         1 CLR       0.031533
     70 H263        -1.0230    -1.4850     9.6370 hc         1 CLR       0.031533
     71 H271         1.5510    -1.5080     8.8010 hc         1 CLR       0.031533
     72 H272         2.2020     0.0080     8.1380 hc         1 CLR       0.031533
     73 H273         1.7200    -0.0740     9.8360 hc         1 CLR       0.031533
     74 H1          -0.7590    -1.2530    -8.5320 ho         1 CLR       0.440000
@<TRIPOS>BOND
     1     1     2 1   
     2     1    10 1   
     3     1    29 1   
     4     1    30 1   
     5     2     3 1   
     6     2    31 1   
     7     2    32 1   
     8     3     4 1   
     9     3    28 1   
    10     3    33 1   
    11     4     5 1   
    12     4    34 1   
    13     4    35 1   
    14     5     6 2   
    15     5    10 1   
    16     6     7 1   
    17     6    36 1   
    18     7     8 1   
    19     7    37 1   
    20     7    38 1   
    21     8     9 1   
    22     8    14 1   
    23     8    39 1   
    24     9    10 1   
    25     9    11 1   
    26     9    40 1   
    27    10    19 1   
    28    11    12 1   
    29    11    41 1   
    30    11    42 1   
    31    12    13 1   
    32    12    43 1   
    33    12    44 1   
    34    13    14 1   
    35    13    17 1   
    36    13    18 1   
    37    14    15 1   
    38    14    45 1   
    39    15    16 1   
    40    15    46 1   
    41    15    47 1   
    42    16    17 1   
    43    16    48 1   
    44    16    49 1   
    45    17    20 1   
    46    17    50 1   
    47    18    51 1   
    48    18    52 1   
    49    18    53 1   
    50    19    54 1   
    51    19    55 1   
    52    19    56 1   
    53    20    21 1   
    54    20    22 1   
    55    20    57 1   
    56    21    58 1   
    57    21    59 1   
    58    21    60 1   
    59    22    23 1   
    60    22    61 1   
    61    22    62 1   
    62    23    24 1   
    63    23    63 1   
    64    23    64 1   
    65    24    25 1   
    66    24    65 1   
    67    24    66 1   
    68    25    26 1   
    69    25    27 1   
    70    25    67 1   
    71    26    68 1   
    72    26    69 1   
    73    26    70 1   
    74    27    71 1   
    75    27    72 1   
    76    27    73 1   
    77    28    74 1   
@<TRIPOS>SUBSTRUCTURE
     1 CLR         1 TEMP              0 ****  ****    0 ROOT
