@<TRIPOS>MOLECULE
CLR
   74    77     1     0     0
SMALL
bcc


@<TRIPOS>ATOM
      1 C1           1.3630    -0.9890    -4.5320 c6         1 CLR      -0.067400
      2 C2           1.4280    -0.9700    -6.0540 c6         1 CLR      -0.072400
      3 C3           0.0390    -1.0910    -6.6490 c6         1 CLR       0.150100
      4 C4          -0.8430     0.0400    -6.1270 c6         1 CLR      -0.073200
      5 C5          -0.8770     0.0830    -4.6220 c2         1 CLR      -0.107400
      6 C6          -2.0420     0.1130    -3.9760 c2         1 CLR      -0.166200
      7 C7          -2.1990     0.2000    -2.4950 c6         1 CLR      -0.037200
      8 C8          -0.9000     0.5370    -1.7720 c6         1 CLR      -0.041700
      9 C9           0.2760    -0.2220    -2.4040 c6         1 CLR      -0.046700
     10 C10          0.4640     0.1020    -3.9090 c6         1 CLR       0.004200
     11 C11          1.5560    -0.0450    -1.5800 c6         1 CLR      -0.071400
     12 C12          1.3890    -0.3710    -0.0930 c6         1 CLR      -0.061400
     13 C13          0.2510     0.4330     0.5400 c5         1 CLR      -0.036000
     14 C14         -1.0040     0.1600    -0.3040 c5         1 CLR      -0.065700
     15 C15         -2.1440     0.7460     0.5180 c5         1 CLR      -0.072400
     16 C16         -1.7180     0.4630     1.9710 c5         1 CLR      -0.077400
     17 C17         -0.2530    -0.0520     1.9230 c5         1 CLR      -0.054700
     18 C18          0.5980     1.9240     0.5980 c3         1 CLR      -0.078100
     19 C19          1.1070     1.4810    -4.1210 c3         1 CLR      -0.079100
     20 C20          0.5310     0.3220     3.1900 c3         1 CLR      -0.046700
     21 C21          2.0050    -0.0670     3.1200 c3         1 CLR      -0.086100
     22 C22         -0.1380    -0.3220     4.4130 c3         1 CLR      -0.077400
     23 C23          0.3830     0.1440     5.7690 c3         1 CLR      -0.074400
     24 C24         -0.3970    -0.4780     6.9220 c3         1 CLR      -0.073400
     25 C25          0.0300    -0.0170     8.3170 c3         1 CLR      -0.059700
     26 C26         -0.9250    -0.5680     9.3720 c3         1 CLR      -0.087100
     27 C27          1.4650    -0.4180     8.6440 c3         1 CLR      -0.087100
     28 O1           0.1480    -1.0690    -8.0580 oh         1 CLR      -0.597800
     29 H11          0.9940    -1.9700    -4.2080 hc         1 CLR       0.042200
     30 H12          2.3770    -0.8970    -4.1370 hc         1 CLR       0.042200
     31 H21          2.0580    -1.7940    -6.3990 hc         1 CLR       0.052700
     32 H22          1.8970    -0.0450    -6.4080 hc         1 CLR       0.052700
     33 H3          -0.3960    -2.0470    -6.3150 h1         1 CLR       0.029700
     34 H41         -1.8620    -0.0680    -6.5110 hc         1 CLR       0.049700
     35 H42         -0.4560     0.9840    -6.5270 hc         1 CLR       0.049700
     36 H6          -2.9580     0.0750    -4.5590 ha         1 CLR       0.117000
     37 H71         -2.5970    -0.7530    -2.1210 hc         1 CLR       0.046700
     38 H72         -2.9670     0.9430    -2.2560 hc         1 CLR       0.046700
     39 H8          -0.7250     1.6160    -1.8620 hc         1 CLR       0.054700
     40 H9           0.0070    -1.2880    -2.3520 hc         1 CLR       0.045700
     41 H111         2.3500    -0.6760    -1.9850 hc         1 CLR       0.039700
     42 H112         1.9170     0.9820    -1.6750 hc         1 CLR       0.039700
     43 H121         1.1730    -1.4400     0.0270 hc         1 CLR       0.040200
     44 H122         2.3430    -0.1930     0.4060 hc         1 CLR       0.040200
     45 H14         -1.1370    -0.9340    -0.2860 hc         1 CLR       0.042700
     46 H151        -3.1080     0.2970     0.2720 hc         1 CLR       0.041200
     47 H152        -2.2440     1.8190     0.3320 hc         1 CLR       0.041200
     48 H161        -2.3770    -0.2680     2.4410 hc         1 CLR       0.040700
     49 H162        -1.7750     1.3660     2.5840 hc         1 CLR       0.040700
     50 H17         -0.2730    -1.1500     1.8720 hc         1 CLR       0.043700
     51 H181         0.8320     2.3400    -0.3830 hc         1 CLR       0.032367
     52 H182        -0.2160     2.5220     1.0110 hc         1 CLR       0.032367
     53 H183         1.4700     2.0970     1.2310 hc         1 CLR       0.032367
     54 H191         1.1150     1.7640    -5.1750 hc         1 CLR       0.034700
     55 H192         0.5620     2.2600    -3.5860 hc         1 CLR       0.034700
     56 H193         2.1430     1.5010    -3.7810 hc         1 CLR       0.034700
     57 H20          0.4680     1.4110     3.3140 hc         1 CLR       0.045700
     58 H211         2.1200    -1.1310     2.8970 hc         1 CLR       0.032367
     59 H212         2.5390     0.4900     2.3520 hc         1 CLR       0.032367
     60 H213         2.5170     0.1310     4.0620 hc         1 CLR       0.032367
     61 H221        -0.0360    -1.4120     4.3400 hc         1 CLR       0.037200
     62 H222        -1.2130    -0.1240     4.3850 hc         1 CLR       0.037200
     63 H231         0.3100     1.2360     5.8300 hc         1 CLR       0.038700
     64 H232         1.4440    -0.0960     5.8720 hc         1 CLR       0.038700
     65 H241        -0.3150    -1.5710     6.8680 hc         1 CLR       0.036200
     66 H242        -1.4600    -0.2510     6.7890 hc         1 CLR       0.036200
     67 H25         -0.0330     1.0790     8.3430 hc         1 CLR       0.043700
     68 H261        -0.6580    -0.2240    10.3730 hc         1 CLR       0.031533
     69 H262        -1.9560    -0.2620     9.1800 hc         1 CLR       0.031533
     70 H263        -0.9010    -1.6610     9.3810 hc         1 CLR       0.031533
     71 H271         1.5790    -1.5050     8.6070 hc         1 CLR       0.031533
     72 H272         2.1840     0.0150     7.9480 hc         1 CLR       0.031533
     73 H273         1.7460    -0.0910     9.6470 hc         1 CLR       0.031533
     74 H1          -0.7280    -1.2120    -8.4280 ho         1 CLR       0.401000
@<TRIPOS>BOND
     1     1     2 1   
     2     1    10 1   
     3     1    29 1   
     4     1    30 1   
     5     2     3 1   
     6     2    31 1   
     7     2    32 1   
     8     3     4 1   
     9     3    28 1   
    10     3    33 1   
    11     4     5 1   
    12     4    34 1   
    13     4    35 1   
    14     5     6 2   
    15     5    10 1   
    16     6     7 1   
    17     6    36 1   
    18     7     8 1   
    19     7    37 1   
    20     7    38 1   
    21     8     9 1   
    22     8    14 1   
    23     8    39 1   
    24     9    10 1   
    25     9    11 1   
    26     9    40 1   
    27    10    19 1   
    28    11    12 1   
    29    11    41 1   
    30    11    42 1   
    31    12    13 1   
    32    12    43 1   
    33    12    44 1   
    34    13    14 1   
    35    13    17 1   
    36    13    18 1   
    37    14    15 1   
    38    14    45 1   
    39    15    16 1   
    40    15    46 1   
    41    15    47 1   
    42    16    17 1   
    43    16    48 1   
    44    16    49 1   
    45    17    20 1   
    46    17    50 1   
    47    18    51 1   
    48    18    52 1   
    49    18    53 1   
    50    19    54 1   
    51    19    55 1   
    52    19    56 1   
    53    20    21 1   
    54    20    22 1   
    55    20    57 1   
    56    21    58 1   
    57    21    59 1   
    58    21    60 1   
    59    22    23 1   
    60    22    61 1   
    61    22    62 1   
    62    23    24 1   
    63    23    63 1   
    64    23    64 1   
    65    24    25 1   
    66    24    65 1   
    67    24    66 1   
    68    25    26 1   
    69    25    27 1   
    70    25    67 1   
    71    26    68 1   
    72    26    69 1   
    73    26    70 1   
    74    27    71 1   
    75    27    72 1   
    76    27    73 1   
    77    28    74 1   
@<TRIPOS>SUBSTRUCTURE
     1 CLR         1 TEMP              0 ****  ****    0 ROOT
