@<TRIPOS>MOLECULE
CLS
   41    43     1     0     0
SMALL
abcg2


@<TRIPOS>ATOM
      1 S1          -1.1800    -0.6600     0.4770 ss         1 CLS      -0.502000
      2 C2          -1.4380    -0.4720     2.2690 c6         1 CLS       0.143800
      3 C3          -0.1750    -0.3530     3.0890 c2         1 CLS      -0.250400
      4 C5          -0.3540    -0.7720     4.5130 c3         1 CLS       0.231800
      5 O20         -1.3850     0.0720     5.0620 os         1 CLS      -0.458100
      6 C21         -1.8080    -0.1880     6.2940 c          1 CLS       0.592100
      7 O22         -1.3750    -1.0910     6.9670 o          1 CLS      -0.504000
      8 C23         -2.8610     0.7870     6.7300 c3         1 CLS      -0.159100
      9 C4           0.9940     0.1050     2.6140 ce         1 CLS       0.031400
     10 C9           2.3050     0.2620     3.3910 c          1 CLS       0.723200
     11 O4A          2.6270    -0.6650     4.1530 o          1 CLS      -0.684000
     12 O4B          2.9080     1.3230     3.1710 o          1 CLS      -0.684000
     13 N5           1.0540     0.5440     1.2930 nj         1 CLS      -0.281000
     14 C6          -0.0650     0.7530     0.4000 cy         1 CLS       0.198700
     15 C7           0.9450     0.7500    -0.7740 cy         1 CLS       0.008700
     16 C8           1.9700     0.3600     0.2970 c          1 CLS       0.576000
     17 O9           3.1070    -0.0250     0.2820 o          1 CLS      -0.464000
     18 N10          0.7900    -0.1990    -1.8260 ns         1 CLS      -0.475900
     19 C11         -0.0190     0.0400    -2.8780 c          1 CLS       0.606100
     20 O12         -0.6410     1.0790    -3.0010 o          1 CLS      -0.599100
     21 C13         -0.1390    -1.1050    -3.8640 c3         1 CLS      -0.089100
     22 C14         -0.3240    -0.6650    -5.2770 cc         1 CLS      -0.203300
     23 C15          0.3770    -1.0960    -6.3640 cd         1 CLS      -0.143000
     24 C16         -0.0880    -0.5400    -7.5880 cd         1 CLS      -0.138000
     25 C17         -1.1430     0.3000    -7.4060 cc         1 CLS      -0.272000
     26 S19         -1.5630     0.4360    -5.7500 ss         1 CLS       0.277000
     27 H21         -1.9860    -1.3650     2.5800 h1         1 CLS       0.061700
     28 H22         -2.1040     0.3770     2.4380 h1         1 CLS       0.061700
     29 H3'1         0.5600    -0.6730     5.0930 h1         1 CLS       0.072200
     30 H3'2        -0.6780    -1.8160     4.5590 h1         1 CLS       0.072200
     31 H231        -3.2770     0.4930     7.6900 hc         1 CLS       0.058700
     32 H232        -2.4270     1.7830     6.8270 hc         1 CLS       0.058700
     33 H233        -3.6620     0.8530     5.9940 hc         1 CLS       0.058700
     34 H6          -0.6010     1.6860     0.5770 h2         1 CLS       0.100700
     35 H7           1.1010     1.7560    -1.1680 h1         1 CLS       0.102700
     36 H10          1.2640    -1.0860    -1.7590 hn         1 CLS       0.332500
     37 H131         0.7300    -1.7620    -3.8110 hc         1 CLS       0.071700
     38 H132        -0.9960    -1.7050    -3.5370 hc         1 CLS       0.071700
     39 H15          1.1970    -1.7970    -6.2920 ha         1 CLS       0.127000
     40 H16          0.3480    -0.7530    -8.5530 ha         1 CLS       0.125000
     41 H17         -1.6780     0.8670    -8.1530 h4         1 CLS       0.142000
@<TRIPOS>BOND
     1     1     2 1   
     2     1    14 1   
     3     2     3 1   
     4     2    27 1   
     5     2    28 1   
     6     3     4 1   
     7     3     9 2   
     8     4     5 1   
     9     4    29 1   
    10     4    30 1   
    11     5     6 1   
    12     6     7 2   
    13     6     8 1   
    14     8    31 1   
    15     8    32 1   
    16     8    33 1   
    17     9    10 1   
    18     9    13 1   
    19    10    11 1   
    20    10    12 1   
    21    13    14 1   
    22    13    16 1   
    23    14    15 1   
    24    14    34 1   
    25    15    16 1   
    26    15    18 1   
    27    15    35 1   
    28    16    17 2   
    29    18    19 1   
    30    18    36 1   
    31    19    20 2   
    32    19    21 1   
    33    21    22 1   
    34    21    37 1   
    35    21    38 1   
    36    22    23 2   
    37    22    26 1   
    38    23    24 1   
    39    23    39 1   
    40    24    25 2   
    41    24    40 1   
    42    25    26 1   
    43    25    41 1   
@<TRIPOS>SUBSTRUCTURE
     1 CLS         1 TEMP              0 ****  ****    0 ROOT
