@<TRIPOS>MOLECULE
CLS
   41    43     1     0     0
SMALL
No Charge or Current Charge


@<TRIPOS>ATOM
      1 S1          -1.1560    -1.6820     0.5740 ss         1 CLS      -0.502000
      2 C2          -1.1560    -1.6650     2.4240 c6         1 CLS       0.143800
      3 C3          -0.1090    -0.8320     3.1770 c2         1 CLS      -0.250400
      4 C5          -0.2790    -0.9920     4.6800 c3         1 CLS       0.231800
      5 O20         -1.0520     0.1290     5.1390 os         1 CLS      -0.458100
      6 C21         -1.3150     0.2160     6.4780 c          1 CLS       0.592100
      7 O22         -0.9610    -0.6060     7.3120 o          1 CLS      -0.504000
      8 C23         -2.1350     1.4560     6.8090 c3         1 CLS      -0.159100
      9 C4           0.7870     0.0160     2.5700 ce         1 CLS       0.031400
     10 C9           1.8310     0.9160     3.2470 c          1 CLS       0.723200
     11 O4A          1.9680     0.8940     4.4630 o          1 CLS      -0.684000
     12 O4B          2.4930     1.6670     2.5430 o          1 CLS      -0.684000
     13 N5           0.7580    -0.0970     1.1280 nj         1 CLS      -0.281000
     14 C6          -0.5160     0.0450     0.4260 cy         1 CLS       0.198700
     15 C7           0.3020     0.4270    -0.8640 cy         1 CLS       0.008700
     16 C8           1.5710     0.2090     0.0330 c          1 CLS       0.576000
     17 O9           2.7810     0.3010    -0.1290 o          1 CLS      -0.464000
     18 N10          0.1400    -0.3440    -2.0890 ns         1 CLS      -0.475900
     19 C11         -0.9260    -0.1980    -2.9490 c          1 CLS       0.606100
     20 O12         -1.7950     0.6460    -2.7700 o          1 CLS      -0.599100
     21 C13         -0.9290    -1.1470    -4.1570 c3         1 CLS      -0.089100
     22 C14         -0.4250    -0.5070    -5.4300 cc         1 CLS      -0.203300
     23 C15          0.7590    -0.7500    -6.0800 cd         1 CLS      -0.143000
     24 C16          0.9320     0.0300    -7.2550 cd         1 CLS      -0.138000
     25 C17         -0.1180     0.8740    -7.5100 cc         1 CLS      -0.272000
     26 S19         -1.3690     0.7210    -6.2790 ss         1 CLS       0.277000
     27 H21         -1.0960    -2.7150     2.7480 h1         1 CLS       0.061700
     28 H22         -2.1510    -1.3050     2.7220 h1         1 CLS       0.061700
     29 H3'1         0.6950    -1.0440     5.1830 h1         1 CLS       0.072200
     30 H3'2        -0.8000    -1.9330     4.9100 h1         1 CLS       0.072200
     31 H231        -2.3710     1.5350     7.8760 hc         1 CLS       0.058700
     32 H232        -1.6030     2.3410     6.4420 hc         1 CLS       0.058700
     33 H233        -3.0400     1.4580     6.1900 hc         1 CLS       0.058700
     34 H6          -1.2150     0.7810     0.8370 h2         1 CLS       0.100700
     35 H7           0.1980     1.4880    -1.1140 h1         1 CLS       0.102700
     36 H10          0.8130    -1.0640    -2.3290 hn         1 CLS       0.332500
     37 H131        -0.2950    -2.0130    -3.9340 hc         1 CLS       0.071700
     38 H132        -1.9580    -1.4880    -4.3200 hc         1 CLS       0.071700
     39 H15          1.4960    -1.4680    -5.7320 ha         1 CLS       0.127000
     40 H16          1.8120    -0.0360    -7.8890 ha         1 CLS       0.125000
     41 H17         -0.2540     1.5740    -8.3240 h4         1 CLS       0.142000
@<TRIPOS>BOND
     1     1     2 1   
     2     1    14 1   
     3     2     3 1   
     4     2    27 1   
     5     2    28 1   
     6     3     4 1   
     7     3     9 2   
     8     4     5 1   
     9     4    29 1   
    10     4    30 1   
    11     5     6 1   
    12     6     7 2   
    13     6     8 1   
    14     8    31 1   
    15     8    32 1   
    16     8    33 1   
    17     9    10 1   
    18     9    13 1   
    19    10    11 1   
    20    10    12 1   
    21    13    14 1   
    22    13    16 1   
    23    14    15 1   
    24    14    34 1   
    25    15    16 1   
    26    15    18 1   
    27    15    35 1   
    28    16    17 2   
    29    18    19 1   
    30    18    36 1   
    31    19    20 2   
    32    19    21 1   
    33    21    22 1   
    34    21    37 1   
    35    21    38 1   
    36    22    23 2   
    37    22    26 1   
    38    23    24 1   
    39    23    39 1   
    40    24    25 2   
    41    24    40 1   
    42    25    26 1   
    43    25    41 1   
@<TRIPOS>SUBSTRUCTURE
     1 CLS         1 TEMP              0 ****  ****    0 ROOT
