@<TRIPOS>MOLECULE
CLT
   23    23     1     0     0
SMALL
No Charge or Current Charge


@<TRIPOS>ATOM
      1 CA           0.0660    -0.8270     2.4100 c3         1 CLT      -0.206400
      2 CB1          0.0060    -0.1830     1.0040 c3         1 CLT      -0.049400
      3 CG           0.0770    -1.2130    -0.1440 c3         1 CLT      -0.047100
      4 CD           0.0150    -0.5520    -1.5140 ca         1 CLT      -0.048300
      5 CE1          1.1990    -0.1490    -2.1630 ca         1 CLT      -0.111000
      6 CE2         -1.2270    -0.3310    -2.1420 ca         1 CLT      -0.111000
      7 CZ1          1.1420     0.4650    -3.4260 ca         1 CLT      -0.116000
      8 CZ2         -1.2840     0.2830    -3.4050 ca         1 CLT      -0.116000
      9 CH          -0.1000     0.6810    -4.0480 ca         1 CLT      -0.132000
     10 CB2         -0.0100     0.2620     3.4960 c          1 CLT       0.717000
     11 OG1          1.0330     0.7700     3.8770 o          1 CLT      -0.741500
     12 OG2         -1.1130     0.6040     3.8930 o          1 CLT      -0.741500
     13 HA1          1.0290    -1.3520     2.4590 hc         1 CLT       0.014700
     14 HA2         -0.8030    -1.4940     2.4730 hc         1 CLT       0.014700
     15 HB11        -0.9230     0.3940     0.9090 hc         1 CLT       0.043700
     16 HB12         0.8330     0.5300     0.8960 hc         1 CLT       0.043700
     17 HG1          1.0020    -1.7950    -0.0490 hc         1 CLT       0.035200
     18 HG2         -0.7470    -1.9300    -0.0360 hc         1 CLT       0.035200
     19 HE1          2.1630    -0.3100    -1.6870 ha         1 CLT       0.111000
     20 HE2         -2.1480    -0.6340    -1.6490 ha         1 CLT       0.111000
     21 HZ1          2.0590     0.7740    -3.9220 ha         1 CLT       0.098000
     22 HZ2         -2.2460     0.4510    -3.8850 ha         1 CLT       0.098000
     23 HH          -0.1440     1.1570    -5.0250 ha         1 CLT       0.097000
@<TRIPOS>BOND
     1     1     2 1   
     2     1    10 1   
     3     1    13 1   
     4     1    14 1   
     5     2     3 1   
     6     2    15 1   
     7     2    16 1   
     8     3     4 1   
     9     3    17 1   
    10     3    18 1   
    11     4     5 ar  
    12     4     6 ar  
    13     5     7 ar  
    14     5    19 1   
    15     6     8 ar  
    16     6    20 1   
    17     7     9 ar  
    18     7    21 1   
    19     8     9 ar  
    20     8    22 1   
    21     9    23 1   
    22    10    11 1   
    23    10    12 1   
@<TRIPOS>SUBSTRUCTURE
     1 CLT         1 TEMP              0 ****  ****    0 ROOT
