@<TRIPOS>MOLECULE
CLT
   23    23     1     0     0
SMALL
abcg2


@<TRIPOS>ATOM
      1 CA          -0.0310    -0.7520     2.3470 c3         1 CLT      -0.206400
      2 CB1         -0.0160    -0.1250     0.9640 c3         1 CLT      -0.049400
      3 CG          -0.0240    -1.1780    -0.1470 c3         1 CLT      -0.047100
      4 CD          -0.0070    -0.5630    -1.5180 ca         1 CLT      -0.048300
      5 CE1          1.1970    -0.2600    -2.1510 ca         1 CLT      -0.111000
      6 CE2         -1.1940    -0.2360    -2.1710 ca         1 CLT      -0.111000
      7 CZ1          1.2170     0.3490    -3.3990 ca         1 CLT      -0.116000
      8 CZ2         -1.1810     0.3740    -3.4180 ca         1 CLT      -0.116000
      9 CH           0.0260     0.6710    -4.0380 ca         1 CLT      -0.132000
     10 CB2         -0.0120     0.2300     3.5320 c          1 CLT       0.717000
     11 OG1          0.0790     1.4470     3.2800 o          1 CLT      -0.741500
     12 OG2         -0.0830    -0.2860     4.6680 o          1 CLT      -0.741500
     13 HA1          0.8250    -1.4290     2.4530 hc         1 CLT       0.014700
     14 HA2         -0.9120    -1.3970     2.4490 hc         1 CLT       0.014700
     15 HB11        -0.8810     0.5330     0.8400 hc         1 CLT       0.043700
     16 HB12         0.8660     0.5120     0.8500 hc         1 CLT       0.043700
     17 HG1          0.8420    -1.8350    -0.0260 hc         1 CLT       0.035200
     18 HG2         -0.9090    -1.8110    -0.0380 hc         1 CLT       0.035200
     19 HE1          2.1330    -0.5060    -1.6630 ha         1 CLT       0.111000
     20 HE2         -2.1430    -0.4660    -1.6990 ha         1 CLT       0.111000
     21 HZ1          2.1640     0.5690    -3.8750 ha         1 CLT       0.098000
     22 HZ2         -2.1160     0.6140    -3.9090 ha         1 CLT       0.098000
     23 HH           0.0390     1.1450    -5.0110 ha         1 CLT       0.097000
@<TRIPOS>BOND
     1     1     2 1   
     2     1    10 1   
     3     1    13 1   
     4     1    14 1   
     5     2     3 1   
     6     2    15 1   
     7     2    16 1   
     8     3     4 1   
     9     3    17 1   
    10     3    18 1   
    11     4     5 ar  
    12     4     6 ar  
    13     5     7 ar  
    14     5    19 1   
    15     6     8 ar  
    16     6    20 1   
    17     7     9 ar  
    18     7    21 1   
    19     8     9 ar  
    20     8    22 1   
    21     9    23 1   
    22    10    11 1   
    23    10    12 1   
@<TRIPOS>SUBSTRUCTURE
     1 CLT         1 TEMP              0 ****  ****    0 ROOT
