@<TRIPOS>MOLECULE
CLU
   23    24     1     0     0
SMALL
No Charge or Current Charge


@<TRIPOS>ATOM
      1 Cl1          0.4880    -2.7520    -0.1670 cl         1 CLU      -0.195500
      2 CAM          1.3650     1.2110     0.2970 ca         1 CLU       0.091000
      3 CAE          2.6480     1.2850    -0.2730 ca         1 CLU      -0.091500
      4 CAC          3.2540     0.1340    -0.8020 ca         1 CLU      -0.119000
      5 CAD          2.5770    -1.0950    -0.7600 ca         1 CLU      -0.091500
      6 CAN          0.6680    -0.0220     0.3430 ca         1 CLU       0.202400
      7 CAL          1.2930    -1.1780    -0.1910 ca         1 CLU       0.091000
      8 Cl2          0.6470     2.6920     0.9440 cl         1 CLU      -0.195500
      9 NAJ         -0.6260    -0.0920     0.9230 ne         1 CLU      -0.712100
     10 CAK         -1.6910    -0.1450     0.2230 c2         1 CLU       0.852100
     11 NAI         -1.7550    -0.1130    -1.1290 nu         1 CLU      -0.905400
     12 CAG         -3.1680    -0.3590    -1.4930 c5         1 CLU       0.191300
     13 CAF         -3.8570     0.2940    -0.2690 c5         1 CLU       0.191300
     14 NAH         -2.9140    -0.1420     0.7830 nu         1 CLU      -0.905400
     15 HAE          3.1730     2.2370    -0.3050 ha         1 CLU       0.129000
     16 HAC          4.2480     0.1940    -1.2420 ha         1 CLU       0.121000
     17 HAD          3.0460    -1.9870    -1.1680 ha         1 CLU       0.129000
     18 HNAI        -1.0220    -0.6650    -1.5610 hn         1 CLU       0.500000
     19 HAG1        -3.4670     0.1100    -2.4410 h1         1 CLU       0.053950
     20 HAG2        -3.3990    -1.4330    -1.5470 h1         1 CLU       0.053950
     21 HAF1        -3.8850     1.3880    -0.3710 h1         1 CLU       0.053950
     22 HAF2        -4.8820    -0.0710    -0.1210 h1         1 CLU       0.053950
     23 HNAH        -2.9040     0.3190     1.6870 hn         1 CLU       0.500000
@<TRIPOS>BOND
     1     1     7 1   
     2     2     3 ar  
     3     2     6 ar  
     4     2     8 1   
     5     3     4 ar  
     6     3    15 1   
     7     4     5 ar  
     8     4    16 1   
     9     5     7 ar  
    10     5    17 1   
    11     6     7 ar  
    12     6     9 1   
    13     9    10 2   
    14    10    11 1   
    15    10    14 1   
    16    11    12 1   
    17    11    18 1   
    18    12    13 1   
    19    12    19 1   
    20    12    20 1   
    21    13    14 1   
    22    13    21 1   
    23    13    22 1   
    24    14    23 1   
@<TRIPOS>SUBSTRUCTURE
     1 CLU         1 TEMP              0 ****  ****    0 ROOT
