@<TRIPOS>MOLECULE
CLU
   23    24     1     0     0
SMALL
bcc


@<TRIPOS>ATOM
      1 CL1          0.8120    -2.8610     0.3510 cl         1 CLU      -0.103900
      2 CAM          1.2330     1.0710     0.0040 ca         1 CLU      -0.000600
      3 CAE          2.5040     1.2020    -0.5310 ca         1 CLU      -0.109500
      4 CAC          3.2550     0.0670    -0.7920 ca         1 CLU      -0.137000
      5 CAD          2.7340    -1.1870    -0.5140 ca         1 CLU      -0.109500
      6 CAN          0.6610    -0.1740     0.3060 ca         1 CLU       0.202400
      7 CAL          1.4600    -1.2900     0.0180 ca         1 CLU      -0.000600
      8 CL2          0.3150     2.5010     0.3370 cl         1 CLU      -0.103900
      9 NAJ         -0.5630    -0.3070     0.9200 ne         1 CLU      -0.712100
     10 CAK         -1.6380    -0.1410     0.2310 c2         1 CLU       0.852100
     11 NAI         -1.7660     0.1320    -1.0970 nu         1 CLU      -0.850200
     12 CAG         -3.1540    -0.0010    -1.5050 c5         1 CLU       0.191300
     13 CAF         -3.8760     0.2400    -0.1800 c5         1 CLU       0.191300
     14 NAH         -2.8840    -0.2330     0.7680 nu         1 CLU      -0.850200
     15 HAE          2.9020     2.1840    -0.7430 ha         1 CLU       0.147000
     16 HAC          4.2490     0.1600    -1.2090 ha         1 CLU       0.139000
     17 HAD          3.3090    -2.0800    -0.7170 ha         1 CLU       0.147000
     18 HNAI        -1.0310    -0.1370    -1.7320 hn         1 CLU       0.444800
     19 HAG1        -3.4230     0.7300    -2.2660 h1         1 CLU       0.053950
     20 HAG2        -3.3640    -1.0010    -1.8950 h1         1 CLU       0.053950
     21 HAF1        -4.0990     1.3020    -0.0380 h1         1 CLU       0.053950
     22 HAF2        -4.8050    -0.3210    -0.1070 h1         1 CLU       0.053950
     23 HNAH        -2.9940    -0.0450     1.7520 hn         1 CLU       0.444800
@<TRIPOS>BOND
     1     1     7 1   
     2     2     3 ar  
     3     2     6 ar  
     4     2     8 1   
     5     3     4 ar  
     6     3    15 1   
     7     4     5 ar  
     8     4    16 1   
     9     5     7 ar  
    10     5    17 1   
    11     6     7 ar  
    12     6     9 1   
    13     9    10 2   
    14    10    11 1   
    15    10    14 1   
    16    11    12 1   
    17    11    18 1   
    18    12    13 1   
    19    12    19 1   
    20    12    20 1   
    21    13    14 1   
    22    13    21 1   
    23    13    22 1   
    24    14    23 1   
@<TRIPOS>SUBSTRUCTURE
     1 CLU         1 TEMP              0 ****  ****    0 ROOT
