@<TRIPOS>MOLECULE
CLV
   23    23     1     0     0
SMALL
bcc


@<TRIPOS>ATOM
      1 N1           2.4440     0.5100     1.4020 n8         1 CLV      -0.885800
      2 CA1          1.8240     1.2370     0.3080 c3         1 CLV       0.172500
      3 CB1          2.8850     1.8390    -0.5980 c3         1 CLV      -0.084100
      4 C1           0.9060     0.2950    -0.4790 c5         1 CLV       0.250900
      5 N2           1.6380    -0.8030    -1.0600 n2         1 CLV      -0.548900
      6 N3          -0.1080    -0.3140     0.3530 n          1 CLV      -0.447800
      7 C2          -0.0660    -1.6510     0.2340 c          1 CLV       0.580200
      8 O2          -0.8070    -2.4810     0.7310 o          1 CLV      -0.632500
      9 CA2          1.1130    -1.8800    -0.6540 ce         1 CLV       0.356200
     10 CA3         -1.2410     0.4050     0.8630 c3         1 CLV      -0.052000
     11 C3          -2.3640     0.6110    -0.1850 c          1 CLV       0.919600
     12 O3          -2.2040     0.0880    -1.2990 o          1 CLV      -0.827300
     13 OXT         -3.3280     1.2880     0.2170 o          1 CLV      -0.827300
     14 HN11         3.0920     1.1230     1.8800 hn         1 CLV       0.336300
     15 HN12         1.7440     0.2630     2.0900 hn         1 CLV       0.336300
     16 HA1          1.1850     2.0630     0.6570 h1         1 CLV       0.024700
     17 HB11         3.5470     1.0720    -0.9980 hc         1 CLV       0.035700
     18 HB12         2.4290     2.3710    -1.4340 hc         1 CLV       0.035700
     19 HB13         3.4910     2.5580    -0.0450 hc         1 CLV       0.035700
     20 H1           0.4360     0.8620    -1.2920 h2         1 CLV       0.109700
     21 HA2          1.4700    -2.8630    -0.9410 h4         1 CLV       0.033800
     22 HA31        -1.6420    -0.1370     1.7210 h1         1 CLV       0.038700
     23 HA32        -0.9120     1.3760     1.2420 h1         1 CLV       0.038700
@<TRIPOS>BOND
     1     1     2 1   
     2     1    14 1   
     3     1    15 1   
     4     2     3 1   
     5     2     4 1   
     6     2    16 1   
     7     3    17 1   
     8     3    18 1   
     9     3    19 1   
    10     4     5 1   
    11     4     6 1   
    12     4    20 1   
    13     5     9 2   
    14     6     7 1   
    15     6    10 1   
    16     7     8 2   
    17     7     9 1   
    18     9    21 1   
    19    10    11 1   
    20    10    22 1   
    21    10    23 1   
    22    11    12 1   
    23    11    13 1   
@<TRIPOS>SUBSTRUCTURE
     1 CLV         1 TEMP              0 ****  ****    0 ROOT
