@<TRIPOS>MOLECULE
CLV
   23    23     1     0     0
SMALL
No Charge or Current Charge


@<TRIPOS>ATOM
      1 N1           2.3810     0.8590     1.2190 n8         1 CLV      -0.996200
      2 CA1          1.6670     1.1810    -0.0470 c3         1 CLV       0.172500
      3 CB1          2.6600     1.7580    -1.0780 c3         1 CLV      -0.084100
      4 C1           0.8120    -0.0220    -0.6030 c5         1 CLV       0.250900
      5 N2           1.6820    -1.2220    -0.9340 n2         1 CLV      -0.548900
      6 N3          -0.1850    -0.5490     0.3590 n          1 CLV      -0.380800
      7 C2           0.1210    -1.8530     0.6800 c          1 CLV       0.437700
      8 O2          -0.4860    -2.5640     1.4770 o          1 CLV      -0.557000
      9 CA2          1.3050    -2.1900    -0.1440 ce         1 CLV       0.356200
     10 CA3         -1.3710     0.1650     0.9150 c3         1 CLV      -0.052000
     11 C3          -1.8270     1.4360     0.1500 c          1 CLV       0.709000
     12 O3          -1.7630     2.5120     0.7260 o          1 CLV      -0.722000
     13 OXT         -2.2090     1.3120    -1.0050 o          1 CLV      -0.722000
     14 HN11         2.7320     1.7310     1.6320 hn         1 CLV       0.391500
     15 HN12         1.6900     0.5290     1.9020 hn         1 CLV       0.391500
     16 HA1          0.9580     1.9840     0.1940 h1         1 CLV       0.024700
     17 HB11         3.4260     1.0210    -1.3450 hc         1 CLV       0.035700
     18 HB12         2.1320     2.0510    -1.9930 hc         1 CLV       0.035700
     19 HB13         3.1620     2.6480    -0.6790 hc         1 CLV       0.035700
     20 H1           0.2520     0.3030    -1.4910 h2         1 CLV       0.109700
     21 HA2          1.7670    -3.1780    -0.1050 h4         1 CLV       0.033800
     22 HA31        -2.2240    -0.5260     0.9330 h1         1 CLV       0.038700
     23 HA32        -1.1510     0.4470     1.9520 h1         1 CLV       0.038700
@<TRIPOS>BOND
     1     1     2 1   
     2     1    14 1   
     3     1    15 1   
     4     2     3 1   
     5     2     4 1   
     6     2    16 1   
     7     3    17 1   
     8     3    18 1   
     9     3    19 1   
    10     4     5 1   
    11     4     6 1   
    12     4    20 1   
    13     5     9 2   
    14     6     7 1   
    15     6    10 1   
    16     7     8 2   
    17     7     9 1   
    18     9    21 1   
    19    10    11 1   
    20    10    22 1   
    21    10    23 1   
    22    11    12 1   
    23    11    13 1   
@<TRIPOS>SUBSTRUCTURE
     1 CLV         1 TEMP              0 ****  ****    0 ROOT
