@<TRIPOS>MOLECULE
CLW
   15    16     1     0     0
SMALL
No Charge or Current Charge


@<TRIPOS>ATOM
      1 C1           1.3920     0.0180    -1.4820 ca         1 CLW      -0.107000
      2 C2           1.8260     0.0130    -0.1340 ca         1 CLW      -0.067000
      3 C3           0.8350     0.0080     0.8530 ca         1 CLW       0.050100
      4 C4          -0.5020     0.0090     0.5390 ca         1 CLW       0.001600
      5 C5          -0.9700     0.0140    -0.7770 ca         1 CLW      -0.102000
      6 C6           0.0070     0.0180    -1.7980 ca         1 CLW       0.128000
      7 Cl1         -0.4990     0.0240    -3.4820 cl         1 CLW      -0.189000
      8 O1           0.9760     0.0030     2.2210 os         1 CLW      -0.283200
      9 C7          -0.2660    -0.0000     2.8280 c          1 CLW       0.686100
     10 N1          -1.1390     0.0040     1.7720 ns         1 CLW      -0.522600
     11 O2          -0.5260    -0.0050     4.0200 o          1 CLW      -0.499000
     12 H11          2.1250     0.0210    -2.2840 ha         1 CLW       0.139000
     13 H21          2.8820     0.0120     0.1260 ha         1 CLW       0.144000
     14 H51         -2.0320     0.0140    -1.0070 ha         1 CLW       0.142000
     15 HN11        -2.1450     0.0020     1.9060 hn         1 CLW       0.479000
@<TRIPOS>BOND
     1     1     2 ar  
     2     1     6 ar  
     3     1    12 1   
     4     2     3 ar  
     5     2    13 1   
     6     3     4 ar  
     7     3     8 1   
     8     4     5 ar  
     9     4    10 1   
    10     5     6 ar  
    11     5    14 1   
    12     6     7 1   
    13     8     9 1   
    14     9    10 1   
    15     9    11 2   
    16    10    15 1   
@<TRIPOS>SUBSTRUCTURE
     1 CLW         1 TEMP              0 ****  ****    0 ROOT
