@<TRIPOS>MOLECULE
CLW
   15    16     1     0     0
SMALL
bcc


@<TRIPOS>ATOM
      1 C1           1.3780     0.0180    -1.4490 ca         1 CLW      -0.125000
      2 C2           1.8060     0.0130    -0.1230 ca         1 CLW      -0.085000
      3 C3           0.8310     0.0080     0.8420 ca         1 CLW       0.050100
      4 C4          -0.5230     0.0080     0.5360 ca         1 CLW       0.001600
      5 C5          -0.9680     0.0130    -0.7690 ca         1 CLW      -0.120000
      6 C6           0.0210     0.0180    -1.7490 ca         1 CLW       0.036400
      7 CL1         -0.4670     0.0250    -3.4110 cl         1 CLW      -0.097400
      8 O1           0.9780     0.0030     2.1960 os         1 CLW      -0.283200
      9 C7          -0.2630     0.0000     2.7640 c          1 CLW       0.828600
     10 N1          -1.1710     0.0010     1.7510 ns         1 CLW      -0.476100
     11 O2          -0.4350    -0.0030     3.9520 o          1 CLW      -0.574500
     12 H11          2.1080     0.0210    -2.2460 ha         1 CLW       0.157000
     13 H21          2.8590     0.0130     0.1220 ha         1 CLW       0.162000
     14 H51         -2.0200     0.0140    -1.0180 ha         1 CLW       0.160000
     15 HN11        -2.1680     0.0040     1.9030 hn         1 CLW       0.365500
@<TRIPOS>BOND
     1     1     2 ar  
     2     1     6 ar  
     3     1    12 1   
     4     2     3 ar  
     5     2    13 1   
     6     3     4 ar  
     7     3     8 1   
     8     4     5 ar  
     9     4    10 1   
    10     5     6 ar  
    11     5    14 1   
    12     6     7 1   
    13     8     9 1   
    14     9    10 1   
    15     9    11 2   
    16    10    15 1   
@<TRIPOS>SUBSTRUCTURE
     1 CLW         1 TEMP              0 ****  ****    0 ROOT
