@<TRIPOS>MOLECULE
CLX
    7     6     1     0     0
SMALL
bcc


@<TRIPOS>ATOM
      1 C1           0.0300     0.1140    -0.0220 c3         1 CLX       0.103200
      2 C            0.0330     1.3920     0.8260 c          1 CLX       0.581900
      3 O            0.0110     1.3760     2.0170 o          1 CLX      -0.440100
      4 CL1         -1.3950     0.1970    -1.0620 cl         1 CLX      -0.093067
      5 CL2         -0.0110    -1.3190     0.9750 cl         1 CLX      -0.093067
      6 CL3          1.4980     0.1550    -1.0040 cl         1 CLX      -0.093067
      7 H            0.0560     2.3060     0.2140 h4         1 CLX       0.035200
@<TRIPOS>BOND
     1     1     2 1   
     2     1     4 1   
     3     1     5 1   
     4     1     6 1   
     5     2     3 2   
     6     2     7 1   
@<TRIPOS>SUBSTRUCTURE
     1 CLX         1 TEMP              0 ****  ****    0 ROOT
