@<TRIPOS>MOLECULE
CLX
    7     6     1     0     0
SMALL
No Charge or Current Charge


@<TRIPOS>ATOM
      1 C1           0.0410     0.1550    -0.0360 c3         1 CLX       0.333000
      2 C            0.0140     1.4210     0.8490 c          1 CLX       0.581900
      3 O            0.7270     1.5940     1.8370 o          1 CLX      -0.440100
      4 Cl1         -1.1620     0.2800    -1.3990 cl         1 CLX      -0.169667
      5 Cl2         -0.3720    -1.3320     0.9310 cl         1 CLX      -0.169667
      6 Cl3          1.6880    -0.0960    -0.7730 cl         1 CLX      -0.169667
      7 H           -0.7140     2.1990     0.5340 h4         1 CLX       0.035200
@<TRIPOS>BOND
     1     1     2 1   
     2     1     4 1   
     3     1     5 1   
     4     1     6 1   
     5     2     3 2   
     6     2     7 1   
@<TRIPOS>SUBSTRUCTURE
     1 CLX         1 TEMP              0 ****  ****    0 ROOT
