@<TRIPOS>MOLECULE
CLY
   60    61     1     0     0
SMALL
No Charge or Current Charge


@<TRIPOS>ATOM
      1 O4           2.1940    -0.5000    -5.0500 oh         1 CLY      -0.706000
      2 C1           1.8000     0.5200    -4.1040 c6         1 CLY       0.125300
      3 C2           2.4510     0.2430    -2.7130 c6         1 CLY       0.132300
      4 C3           1.8290    -1.0380    -2.0670 c6         1 CLY       0.161300
      5 C4           0.2510    -1.0080    -2.0680 c6         1 CLY       0.156300
      6 O5          -0.2190    -0.7030    -3.4110 os         1 CLY      -0.427000
      7 C5           0.2450     0.5540    -3.9560 c6         1 CLY       0.269300
      8 O6           2.2990     1.3680    -1.8250 oh         1 CLY      -0.631000
      9 O7           2.3940    -1.2330    -0.7600 oh         1 CLY      -0.707000
     10 S1          -0.5840     0.7900    -5.5930 ss         1 CLY      -0.404000
     11 C6          -2.3600     0.8010    -5.0750 c3         1 CLY       0.043900
     12 C7          -0.4770    -0.0570    -1.0330 c3         1 CLY       0.088700
     13 C8          -2.0260    -0.0150    -1.2250 c3         1 CLY       0.146300
     14 C9          -2.7430     1.0590    -0.3790 c3         1 CLY      -0.097100
     15 Cl1         -2.7750    -1.6420    -0.8830 cl         1 CLY      -0.311000
     16 N1          -0.1540    -0.4020     0.3680 ns         1 CLY      -0.487900
     17 C10          0.1060     0.5100     1.3730 c          1 CLY       0.614100
     18 O8           0.1380     1.7210     1.1850 o          1 CLY      -0.578100
     19 C11          0.3380    -0.2600     2.7300 c5         1 CLY       0.103500
     20 C12         -0.8180     0.0780     3.7330 c5         1 CLY      -0.070400
     21 C13         -0.0810     0.4590     5.0560 c5         1 CLY      -0.069700
     22 C14          1.2680    -0.2830     4.8820 c5         1 CLY       0.172800
     23 N2           1.5770     0.1020     3.4930 n3         1 CLY      -0.710600
     24 C15          2.8430    -0.4260     2.9460 c3         1 CLY       0.163100
     25 C16         -0.8690     0.1200     6.3450 c3         1 CLY      -0.069400
     26 C17         -0.1530     0.5190     7.6560 c3         1 CLY      -0.075400
     27 C18         -0.9820     0.2030     8.9160 c3         1 CLY      -0.089100
     28 HO4          1.4370    -0.5830    -5.6780 ho         1 CLY       0.519000
     29 H1           2.1360     1.5040    -4.4640 h1         1 CLY       0.047700
     30 H2           3.5230     0.0540    -2.8720 h1         1 CLY       0.046700
     31 H3           2.1180    -1.8880    -2.7030 h1         1 CLY       0.064700
     32 H4          -0.0830    -2.0310    -1.8400 h1         1 CLY       0.092700
     33 H5          -0.0590     1.3940    -3.3150 h2         1 CLY       0.066700
     34 HO6          2.9060     2.0740    -2.1420 ho         1 CLY       0.445000
     35 HO7          2.5330    -0.3160    -0.4240 ho         1 CLY       0.509000
     36 H61         -2.9990     0.9750    -5.9500 h1         1 CLY       0.066367
     37 H62         -2.6250    -0.1660    -4.6280 h1         1 CLY       0.066367
     38 H63         -2.5320     1.5990    -4.3410 h1         1 CLY       0.066367
     39 H7          -0.1100     0.9600    -1.2140 h1         1 CLY       0.100700
     40 H8          -2.2460     0.2020    -2.2770 h1         1 CLY       0.073700
     41 H91         -3.8080     1.0990    -0.6390 hc         1 CLY       0.052367
     42 H92         -2.6660     0.8380     0.6920 hc         1 CLY       0.052367
     43 H93         -2.3110     2.0490    -0.5640 hc         1 CLY       0.052367
     44 HN1         -0.1430    -1.3810     0.6290 hn         1 CLY       0.317500
     45 H11          0.3340    -1.3410     2.5290 h1         1 CLY       0.031700
     46 H121        -1.4700    -0.7930     3.8650 hc         1 CLY       0.050700
     47 H122        -1.4560     0.8990     3.3880 hc         1 CLY       0.050700
     48 H13          0.1010     1.5410     5.0750 hc         1 CLY       0.070700
     49 H141         2.0300     0.0690     5.5910 h1         1 CLY       0.035200
     50 H142         1.1580    -1.3710     4.9940 h1         1 CLY       0.035200
     51 H151         3.6920    -0.1080     3.5650 h1         1 CLY       0.031367
     52 H152         2.8290    -1.5240     2.9170 h1         1 CLY       0.031367
     53 H153         3.0080    -0.0550     1.9260 h1         1 CLY       0.031367
     54 H161        -1.0820    -0.9560     6.3740 hc         1 CLY       0.038700
     55 H162        -1.8430     0.6250     6.3130 hc         1 CLY       0.038700
     56 H171         0.0700     1.5930     7.6360 hc         1 CLY       0.038700
     57 H172         0.8070    -0.0070     7.7250 hc         1 CLY       0.038700
     58 H181        -0.4340     0.5020     9.8180 hc         1 CLY       0.031367
     59 H182        -1.9360     0.7430     8.8990 hc         1 CLY       0.031367
     60 H183        -1.1920    -0.8710     8.9830 hc         1 CLY       0.031367
@<TRIPOS>BOND
     1     1     2 1   
     2     1    28 1   
     3     2     3 1   
     4     2     7 1   
     5     2    29 1   
     6     3     4 1   
     7     3     8 1   
     8     3    30 1   
     9     4     5 1   
    10     4     9 1   
    11     4    31 1   
    12     5     6 1   
    13     5    12 1   
    14     5    32 1   
    15     6     7 1   
    16     7    10 1   
    17     7    33 1   
    18     8    34 1   
    19     9    35 1   
    20    10    11 1   
    21    11    36 1   
    22    11    37 1   
    23    11    38 1   
    24    12    13 1   
    25    12    16 1   
    26    12    39 1   
    27    13    14 1   
    28    13    15 1   
    29    13    40 1   
    30    14    41 1   
    31    14    42 1   
    32    14    43 1   
    33    16    17 1   
    34    16    44 1   
    35    17    18 2   
    36    17    19 1   
    37    19    20 1   
    38    19    23 1   
    39    19    45 1   
    40    20    21 1   
    41    20    46 1   
    42    20    47 1   
    43    21    22 1   
    44    21    25 1   
    45    21    48 1   
    46    22    23 1   
    47    22    49 1   
    48    22    50 1   
    49    23    24 1   
    50    24    51 1   
    51    24    52 1   
    52    24    53 1   
    53    25    26 1   
    54    25    54 1   
    55    25    55 1   
    56    26    27 1   
    57    26    56 1   
    58    26    57 1   
    59    27    58 1   
    60    27    59 1   
    61    27    60 1   
@<TRIPOS>SUBSTRUCTURE
     1 CLY         1 TEMP              0 ****  ****    0 ROOT
