@<TRIPOS>MOLECULE
CLY
   60    61     1     0     0
SMALL
bcc


@<TRIPOS>ATOM
      1 O4           2.3210    -0.5060    -4.6500 oh         1 CLY      -0.583800
      2 C1           1.8020     0.4840    -3.7950 c6         1 CLY       0.102100
      3 C2           2.2940     0.1820    -2.3700 c6         1 CLY       0.109100
      4 C3           1.6050    -1.0750    -1.8510 c6         1 CLY       0.138100
      5 C4           0.0710    -0.9990    -1.9490 c6         1 CLY       0.133100
      6 O5          -0.2670    -0.6980    -3.2930 os         1 CLY      -0.380600
      7 C5           0.2750     0.5010    -3.8000 c6         1 CLY       0.198200
      8 O6           2.0230     1.2500    -1.5020 oh         1 CLY      -0.568800
      9 O7           1.9950    -1.4190    -0.5490 oh         1 CLY      -0.584800
     10 S1          -0.3140     0.7070    -5.4910 ss         1 CLY      -0.308200
     11 C6          -2.0480     1.1070    -5.1810 c3         1 CLY      -0.004000
     12 C7          -0.6890    -0.0780    -0.9700 c3         1 CLY       0.088700
     13 C8          -2.1870    -0.0150    -1.2760 c3         1 CLY       0.069700
     14 C9          -2.9410     0.9290    -0.3680 c3         1 CLY      -0.097100
     15 CL1         -2.9210    -1.6730    -1.1240 cl         1 CLY      -0.234400
     16 N1          -0.4510    -0.4820     0.3890 ns         1 CLY      -0.554900
     17 C10         -0.0000     0.3470     1.3500 c          1 CLY       0.681100
     18 O8           0.0920     1.5540     1.2150 o          1 CLY      -0.578100
     19 C11          0.3180    -0.3420     2.6690 c5         1 CLY       0.103500
     20 C12         -0.8190    -0.1540     3.7010 c5         1 CLY      -0.070400
     21 C13         -0.1450     0.4740     4.9320 c5         1 CLY      -0.069700
     22 C14          1.3180     0.1090     4.7180 c5         1 CLY       0.172800
     23 N2           1.4830     0.2490     3.2880 n3         1 CLY      -0.710600
     24 C15          2.7390    -0.2290     2.7680 c3         1 CLY       0.163100
     25 C16         -0.7260     0.0030     6.2550 c3         1 CLY      -0.069400
     26 C17         -0.0870     0.6610     7.4720 c3         1 CLY      -0.075400
     27 C18         -0.6890     0.1800     8.7840 c3         1 CLY      -0.089100
     28 HO4          2.3830    -0.1560    -5.5430 ho         1 CLY       0.420000
     29 H1           2.1570     1.4820    -4.0830 h1         1 CLY       0.047700
     30 H2           3.3760    -0.0140    -2.4290 h1         1 CLY       0.046700
     31 H3           1.8810    -1.8770    -2.5500 h1         1 CLY       0.064700
     32 H4          -0.3000    -2.0170    -1.7920 h1         1 CLY       0.092700
     33 H5          -0.0650     1.3730    -3.2260 h2         1 CLY       0.066700
     34 HO6          2.5390     2.0120    -1.7850 ho         1 CLY       0.406000
     35 HO7          2.9230    -1.6750    -0.5740 ho         1 CLY       0.410000
     36 H61         -2.4880     1.3990    -6.1330 h1         1 CLY       0.066367
     37 H62         -2.5910     0.2470    -4.7970 h1         1 CLY       0.066367
     38 H63         -2.1380     1.9420    -4.4880 h1         1 CLY       0.066367
     39 H7          -0.3320     0.9490    -1.0650 h1         1 CLY       0.100700
     40 H8          -2.3440     0.2650    -2.3150 h1         1 CLY       0.073700
     41 H91         -3.9950     0.9640    -0.6380 hc         1 CLY       0.052367
     42 H92         -2.8600     0.6330     0.6770 hc         1 CLY       0.052367
     43 H93         -2.5350     1.9370    -0.4720 hc         1 CLY       0.052367
     44 HN1         -0.4270    -1.4710     0.5790 hn         1 CLY       0.317500
     45 H11          0.4660    -1.4210     2.4920 h1         1 CLY       0.031700
     46 H121        -1.2510    -1.1250     3.9530 hc         1 CLY       0.050700
     47 H122        -1.6340     0.4680     3.3270 hc         1 CLY       0.050700
     48 H13         -0.2370     1.5630     4.8690 hc         1 CLY       0.070700
     49 H141         2.0140     0.7610     5.2500 h1         1 CLY       0.035200
     50 H142         1.5030    -0.9240     5.0680 h1         1 CLY       0.035200
     51 H151         3.5650     0.2950     3.2490 h1         1 CLY       0.031367
     52 H152         2.8850    -1.3090     2.9260 h1         1 CLY       0.031367
     53 H153         2.8020    -0.0400     1.6960 h1         1 CLY       0.031367
     54 H161        -0.6160    -1.0860     6.3270 hc         1 CLY       0.038700
     55 H162        -1.8040     0.1980     6.2680 hc         1 CLY       0.038700
     56 H171        -0.1960     1.7470     7.3920 hc         1 CLY       0.038700
     57 H172         0.9900     0.4660     7.4740 hc         1 CLY       0.038700
     58 H181        -0.2240     0.6670     9.6420 hc         1 CLY       0.031367
     59 H182        -1.7600     0.3870     8.8270 hc         1 CLY       0.031367
     60 H183        -0.5600    -0.8970     8.9050 hc         1 CLY       0.031367
@<TRIPOS>BOND
     1     1     2 1   
     2     1    28 1   
     3     2     3 1   
     4     2     7 1   
     5     2    29 1   
     6     3     4 1   
     7     3     8 1   
     8     3    30 1   
     9     4     5 1   
    10     4     9 1   
    11     4    31 1   
    12     5     6 1   
    13     5    12 1   
    14     5    32 1   
    15     6     7 1   
    16     7    10 1   
    17     7    33 1   
    18     8    34 1   
    19     9    35 1   
    20    10    11 1   
    21    11    36 1   
    22    11    37 1   
    23    11    38 1   
    24    12    13 1   
    25    12    16 1   
    26    12    39 1   
    27    13    14 1   
    28    13    15 1   
    29    13    40 1   
    30    14    41 1   
    31    14    42 1   
    32    14    43 1   
    33    16    17 1   
    34    16    44 1   
    35    17    18 2   
    36    17    19 1   
    37    19    20 1   
    38    19    23 1   
    39    19    45 1   
    40    20    21 1   
    41    20    46 1   
    42    20    47 1   
    43    21    22 1   
    44    21    25 1   
    45    21    48 1   
    46    22    23 1   
    47    22    49 1   
    48    22    50 1   
    49    23    24 1   
    50    24    51 1   
    51    24    52 1   
    52    24    53 1   
    53    25    26 1   
    54    25    54 1   
    55    25    55 1   
    56    26    27 1   
    57    26    56 1   
    58    26    57 1   
    59    27    58 1   
    60    27    59 1   
    61    27    60 1   
@<TRIPOS>SUBSTRUCTURE
     1 CLY         1 TEMP              0 ****  ****    0 ROOT
