@<TRIPOS>MOLECULE
CLZ
   24    25     1     0     0
SMALL
No Charge or Current Charge


@<TRIPOS>ATOM
      1 C1          -0.9660     1.2710    -0.1870 c2         1 CLZ       0.189000
      2 N2          -2.2180     1.4380     0.0870 n2         1 CLZ      -0.302000
      3 C3          -3.0670     0.4810     0.3110 c2         1 CLZ       0.215000
      4 N4          -2.6220    -0.7320     0.1990 n2         1 CLZ      -0.259000
      5 N5          -0.2730     2.3710    -0.6720 nv         1 CLZ      -0.358000
      6 N6          -4.3920     0.7420     0.5970 nv         1 CLZ      -0.346000
      7 C7           1.4040    -1.7000    -0.3170 ca         1 CLZ       0.187000
      8 C8           1.0270    -0.3280    -0.2330 ca         1 CLZ      -0.494000
      9 C9          -0.3840    -0.0010    -0.1660 ca         1 CLZ      -0.132000
     10 C10         -1.3190    -1.0450    -0.0220 ca         1 CLZ       0.062000
     11 C11         -0.9240    -2.3870    -0.0660 ca         1 CLZ      -0.051000
     12 C12          0.4270    -2.7070    -0.2450 ca         1 CLZ      -0.167000
     13 N13          2.7090    -2.1130    -0.4730 nv         1 CLZ      -0.332000
     14 Cl           2.3510     0.9400    -0.2950 cl         1 CLZ       1.450000
     15 O1           2.1690     0.5710     1.5400 o          1 CLZ      -0.663000
     16 O2           2.1690     0.5720     1.5400 o          1 CLZ      -0.663000
     17 H51         -0.7440     3.2580    -0.5410 hn         1 CLZ       0.216000
     18 H52          0.1620     2.2500    -1.5770 hn         1 CLZ       0.216000
     19 H61         -4.6410     1.6900     0.8490 hn         1 CLZ       0.235000
     20 H62         -4.9640    -0.0190     0.9380 hn         1 CLZ       0.235000
     21 H11         -1.6640    -3.1780     0.0320 ha         1 CLZ       0.156000
     22 H12          0.7200    -3.7530    -0.2980 ha         1 CLZ       0.140000
     23 H131         3.4830    -1.4800    -0.3310 hn         1 CLZ       0.232000
     24 H132         2.9110    -3.1040    -0.5110 hn         1 CLZ       0.232000
@<TRIPOS>BOND
     1     1     2 1   
     2     1     5 1   
     3     1     9 1   
     4     2     3 1   
     5     3     4 1   
     6     3     6 1   
     7     4    10 1   
     8     5    17 1   
     9     5    18 1   
    10     6    19 1   
    11     6    20 1   
    12     7     8 ar  
    13     7    12 ar  
    14     7    13 1   
    15     8     9 ar  
    16     8    14 1   
    17     9    10 ar  
    18    10    11 ar  
    19    11    12 ar  
    20    11    21 1   
    21    12    22 1   
    22    13    23 1   
    23    13    24 1   
    24    14    15 1   
    25    14    16 1   
@<TRIPOS>SUBSTRUCTURE
     1 CLZ         1 TEMP              0 ****  ****    0 ROOT
