@<TRIPOS>MOLECULE
CLZ
   24    25     1     0     0
SMALL
abcg2


@<TRIPOS>ATOM
      1 C1          -1.0390     1.2930    -0.1580 c2         1 CLZ       0.189000
      2 N2          -2.3290     1.4920    -0.0460 n2         1 CLZ      -0.302000
      3 C3          -3.1380     0.4240     0.0970 c2         1 CLZ       0.215000
      4 N4          -2.7600    -0.8340     0.0250 n2         1 CLZ      -0.259000
      5 N5          -0.2610     2.3790    -0.3950 nv         1 CLZ      -0.358000
      6 N6          -4.4530     0.6950     0.2430 nv         1 CLZ      -0.346000
      7 C7           1.3610    -1.6820    -0.0340 ca         1 CLZ       0.187000
      8 C8           0.8950    -0.3800     0.0400 ca         1 CLZ      -0.494000
      9 C9          -0.4780    -0.0230    -0.0220 ca         1 CLZ      -0.132000
     10 C10         -1.4330    -1.0550    -0.0360 ca         1 CLZ       0.062000
     11 C11         -0.9670    -2.3930    -0.1240 ca         1 CLZ      -0.051000
     12 C12          0.3580    -2.6870    -0.1570 ca         1 CLZ      -0.167000
     13 N13          2.6600    -2.0590     0.0580 nv         1 CLZ      -0.332000
     14 CL           2.0550     0.8640     0.5760 cl         1 CLZ       1.450000
     15 O1           3.1310     0.8740    -0.4770 o          1 CLZ      -0.663000
     16 O2           2.5560     0.3730     1.8960 o          1 CLZ      -0.663000
     17 H51         -0.7770     3.2280    -0.5760 hn         1 CLZ       0.216000
     18 H52          0.5270     2.2760    -1.0150 hn         1 CLZ       0.216000
     19 H61         -4.7260     1.6310     0.4830 hn         1 CLZ       0.235000
     20 H62         -5.0640    -0.0460     0.5410 hn         1 CLZ       0.235000
     21 H11         -1.7010    -3.1870    -0.1750 ha         1 CLZ       0.156000
     22 H12          0.6790    -3.7190    -0.2390 ha         1 CLZ       0.140000
     23 H131         3.3890    -1.4090    -0.1800 hn         1 CLZ       0.232000
     24 H132         2.8720    -3.0170    -0.1660 hn         1 CLZ       0.232000
@<TRIPOS>BOND
     1     1     2 1   
     2     1     5 1   
     3     1     9 1   
     4     2     3 1   
     5     3     4 1   
     6     3     6 1   
     7     4    10 1   
     8     5    17 1   
     9     5    18 1   
    10     6    19 1   
    11     6    20 1   
    12     7     8 1   
    13     7    12 1   
    14     7    13 1   
    15     8     9 1   
    16     8    14 1   
    17     9    10 1   
    18    10    11 1   
    19    11    12 1   
    20    11    21 1   
    21    12    22 1   
    22    13    23 1   
    23    13    24 1   
    24    14    15 1   
    25    14    16 1   
@<TRIPOS>SUBSTRUCTURE
     1 CLZ         1 TEMP              0 ****  ****    0 ROOT
