@<TRIPOS>MOLECULE
CM3
   67    71     1     0     0
SMALL
bcc


@<TRIPOS>ATOM
      1 C1          -0.0520    -1.3420     2.2860 c6         1 CM3      -0.035400
      2 C2          -1.0320    -0.4870     1.4610 c6         1 CM3       0.211400
      3 O3          -1.1690     0.7980     2.0320 os         1 CM3      -0.308900
      4 C4          -1.4250     0.8560     3.3560 ca         1 CM3       0.135100
      5 C5          -1.9100     2.0600     3.8550 ca         1 CM3      -0.140000
      6 C6          -2.1550     2.2140     5.2060 ca         1 CM3      -0.110000
      7 C7          -1.9250     1.1650     6.0880 ca         1 CM3       0.074100
      8 O8          -2.1800     1.3380     7.4060 oh         1 CM3      -0.489100
      9 C9          -1.4420    -0.0210     5.5580 ca         1 CM3       0.069900
     10 F10         -1.1980    -1.0280     6.4260 f          1 CM3      -0.153900
     11 C11         -1.1800    -0.2200     4.2110 ca         1 CM3      -0.155300
     12 C12         -0.6280    -1.5280     3.6990 c6         1 CM3      -0.002400
     13 C13         -1.6900    -2.6320     3.7130 c3         1 CM3      -0.087100
     14 C14          1.3560    -0.8010     2.2440 ca         1 CM3      -0.111300
     15 C15          1.8720     0.0760     3.1940 ca         1 CM3      -0.078000
     16 C16          3.1730     0.5520     3.1160 ca         1 CM3      -0.194500
     17 C17          3.9970     0.1610     2.0670 ca         1 CM3       0.138100
     18 O18          5.2580     0.6460     2.0460 oh         1 CM3      -0.496100
     19 C19          3.5010    -0.7120     1.1060 ca         1 CM3      -0.194500
     20 C20          2.2010    -1.1790     1.2020 ca         1 CM3      -0.078000
     21 C21         -0.6230    -0.3360     0.0260 ca         1 CM3      -0.129300
     22 C22          0.0910     0.7540    -0.4430 ca         1 CM3      -0.070000
     23 C23          0.4980     0.8320    -1.7690 ca         1 CM3      -0.197000
     24 C24          0.2010    -0.2010    -2.6540 ca         1 CM3       0.150100
     25 C25         -0.5100    -1.3090    -2.1860 ca         1 CM3      -0.197000
     26 C26         -0.9160    -1.3640    -0.8690 ca         1 CM3      -0.070000
     27 O27          0.5440    -0.2220    -3.9510 os         1 CM3      -0.300900
     28 C28          1.1140     0.9300    -4.5280 c3         1 CM3       0.141400
     29 C29          1.2840     0.6970    -6.0150 c3         1 CM3       0.175800
     30 N30          0.0710     0.3310    -6.7060 n3         1 CM3      -0.715600
     31 C31         -0.9450     1.3650    -6.6810 c6         1 CM3       0.172300
     32 C32         -2.2390     0.8830    -7.3200 c6         1 CM3      -0.075400
     33 C33         -1.9970     0.3950    -8.7410 c6         1 CM3      -0.075400
     34 C34         -0.8910    -0.6510    -8.7410 c6         1 CM3      -0.075400
     35 C35          0.3560    -0.1120    -8.0580 c6         1 CM3       0.172300
     36 H1          -0.0300    -2.3270     1.8100 hc         1 CM3       0.065700
     37 H2          -2.0110    -0.9870     1.4860 h1         1 CM3       0.051700
     38 H5          -2.0900     2.8850     3.1780 ha         1 CM3       0.153000
     39 H6          -2.5310     3.1530     5.5880 ha         1 CM3       0.153000
     40 HO8         -1.8970     0.5710     7.9130 ho         1 CM3       0.434000
     41 H12          0.1890    -1.8480     4.3520 hc         1 CM3       0.075700
     42 H131        -2.1190    -2.7690     4.7030 hc         1 CM3       0.040033
     43 H132        -2.5090    -2.4100     3.0290 hc         1 CM3       0.040033
     44 H133        -1.2500    -3.5830     3.4110 hc         1 CM3       0.040033
     45 H15          1.2660     0.4010     4.0300 ha         1 CM3       0.135000
     46 H16          3.5550     1.2220     3.8770 ha         1 CM3       0.138000
     47 H18          5.7350     0.3030     1.2860 ho         1 CM3       0.423000
     48 H19          4.1230    -1.0410     0.2810 ha         1 CM3       0.138000
     49 H20          1.8380    -1.8600     0.4430 ha         1 CM3       0.135000
     50 H22          0.3430     1.5680     0.2230 ha         1 CM3       0.137500
     51 H23          1.0450     1.7070    -2.0910 ha         1 CM3       0.141000
     52 H25         -0.7530    -2.1080    -2.8730 ha         1 CM3       0.141000
     53 H26         -1.4820    -2.2260    -0.5320 ha         1 CM3       0.137500
     54 H281         0.4890     1.8090    -4.3290 h1         1 CM3       0.033200
     55 H282         2.1030     1.1400    -4.0990 h1         1 CM3       0.033200
     56 H291         1.7530     1.6090    -6.4290 h1         1 CM3       0.038200
     57 H292         2.0090    -0.1090    -6.1560 h1         1 CM3       0.038200
     58 H311        -1.1530     1.6450    -5.6470 h1         1 CM3       0.027450
     59 H312        -0.6020     2.2820    -7.1970 h1         1 CM3       0.027450
     60 H321        -2.9700     1.6940    -7.3040 hc         1 CM3       0.047450
     61 H322        -2.6480     0.0700    -6.7140 hc         1 CM3       0.047450
     62 H331        -1.6990     1.2400    -9.3710 hc         1 CM3       0.038200
     63 H332        -2.9140    -0.0090    -9.1740 hc         1 CM3       0.038200
     64 H341        -0.6420    -0.9570    -9.7590 hc         1 CM3       0.047450
     65 H342        -1.2260    -1.5460    -8.2090 hc         1 CM3       0.047450
     66 H351         0.7810     0.7050    -8.6730 h1         1 CM3       0.027450
     67 H352         1.1170    -0.8950    -8.0110 h1         1 CM3       0.027450
@<TRIPOS>BOND
     1     1     2 1   
     2     1    12 1   
     3     1    14 1   
     4     1    36 1   
     5     2     3 1   
     6     2    21 1   
     7     2    37 1   
     8     3     4 1   
     9     4     5 ar  
    10     4    11 ar  
    11     5     6 ar  
    12     5    38 1   
    13     6     7 ar  
    14     6    39 1   
    15     7     8 1   
    16     7     9 ar  
    17     8    40 1   
    18     9    10 1   
    19     9    11 ar  
    20    11    12 1   
    21    12    13 1   
    22    12    41 1   
    23    13    42 1   
    24    13    43 1   
    25    13    44 1   
    26    14    15 ar  
    27    14    20 ar  
    28    15    16 ar  
    29    15    45 1   
    30    16    17 ar  
    31    16    46 1   
    32    17    18 1   
    33    17    19 ar  
    34    18    47 1   
    35    19    20 ar  
    36    19    48 1   
    37    20    49 1   
    38    21    22 ar  
    39    21    26 ar  
    40    22    23 ar  
    41    22    50 1   
    42    23    24 ar  
    43    23    51 1   
    44    24    25 ar  
    45    24    27 1   
    46    25    26 ar  
    47    25    52 1   
    48    26    53 1   
    49    27    28 1   
    50    28    29 1   
    51    28    54 1   
    52    28    55 1   
    53    29    30 1   
    54    29    56 1   
    55    29    57 1   
    56    30    31 1   
    57    30    35 1   
    58    31    32 1   
    59    31    58 1   
    60    31    59 1   
    61    32    33 1   
    62    32    60 1   
    63    32    61 1   
    64    33    34 1   
    65    33    62 1   
    66    33    63 1   
    67    34    35 1   
    68    34    64 1   
    69    34    65 1   
    70    35    66 1   
    71    35    67 1   
@<TRIPOS>SUBSTRUCTURE
     1 CM3         1 TEMP              0 ****  ****    0 ROOT
