@<TRIPOS>MOLECULE
CM3
   67    71     1     0     0
SMALL
No Charge or Current Charge


@<TRIPOS>ATOM
      1 C1           0.0140    -1.4060     2.4640 c6         1 CM3      -0.035400
      2 C2          -1.0790    -0.7180     1.6000 c6         1 CM3       0.234600
      3 O3          -1.4100     0.5880     2.1140 os         1 CM3      -0.332100
      4 C4          -1.6000     0.7580     3.4680 ca         1 CM3       0.135100
      5 C5          -2.1910     1.9550     3.9050 ca         1 CM3      -0.122000
      6 C6          -2.3790     2.1980     5.2760 ca         1 CM3      -0.092000
      7 C7          -1.9610     1.2460     6.2180 ca         1 CM3       0.074100
      8 O8          -2.1380     1.4960     7.5520 oh         1 CM3      -0.528100
      9 C9          -1.3560     0.0470     5.7840 ca         1 CM3       0.105000
     10 F10         -0.9330    -0.8500     6.7070 f          1 CM3      -0.189000
     11 C11         -1.1730    -0.2140     4.4060 ca         1 CM3      -0.155300
     12 C12         -0.4910    -1.5120     3.9350 c6         1 CM3      -0.002400
     13 C13         -1.4640    -2.7130     4.1230 c3         1 CM3      -0.087100
     14 C14          1.4090    -0.7540     2.3140 ca         1 CM3      -0.111300
     15 C15          1.8140     0.3600     3.0850 ca         1 CM3      -0.060000
     16 C16          3.0870     0.9270     2.9020 ca         1 CM3      -0.176500
     17 C17          3.9670     0.3950     1.9520 ca         1 CM3       0.138100
     18 O18          5.1980     0.9540     1.7830 oh         1 CM3      -0.535100
     19 C19          3.5790    -0.7090     1.1790 ca         1 CM3      -0.176500
     20 C20          2.3070    -1.2800     1.3600 ca         1 CM3      -0.060000
     21 C21         -0.6970    -0.6010     0.1170 ca         1 CM3      -0.129300
     22 C22          0.0600     0.4920    -0.3560 ca         1 CM3      -0.052000
     23 C23          0.4190     0.5760    -1.7120 ca         1 CM3      -0.179000
     24 C24          0.0220    -0.4360    -2.6120 ca         1 CM3       0.150100
     25 C25         -0.7300    -1.5230    -2.1410 ca         1 CM3      -0.179000
     26 C26         -1.0890    -1.6090    -0.7840 ca         1 CM3      -0.052000
     27 O27          0.3460    -0.4100    -3.9530 os         1 CM3      -0.324100
     28 C28          1.1100     0.6640    -4.5370 c3         1 CM3       0.164600
     29 C29          1.2920     0.3930    -6.0560 c3         1 CM3       0.175800
     30 N30          0.0460     0.2760    -6.8710 n3         1 CM3      -0.715600
     31 C31         -0.7920     1.5120    -6.8560 c6         1 CM3       0.172300
     32 C32         -2.1210     1.3140    -7.6270 c6         1 CM3      -0.075400
     33 C33         -1.8600     0.8470    -9.0770 c6         1 CM3      -0.075400
     34 C34         -0.9600    -0.4090    -9.0740 c6         1 CM3      -0.075400
     35 C35          0.3370    -0.1610    -8.2660 c6         1 CM3       0.172300
     36 H1           0.1120    -2.4330     2.0850 hc         1 CM3       0.065700
     37 H2          -1.9930    -1.3240     1.6620 h1         1 CM3       0.051700
     38 H5          -2.5040     2.6970     3.1750 ha         1 CM3       0.135000
     39 H6          -2.8400     3.1250     5.6070 ha         1 CM3       0.135000
     40 HO8         -1.7850     0.7300     8.0560 ho         1 CM3       0.473000
     41 H12          0.3750    -1.7240     4.5790 hc         1 CM3       0.075700
     42 H131        -1.7510    -2.8350     5.1740 hc         1 CM3       0.040033
     43 H132        -2.3870    -2.5820     3.5470 hc         1 CM3       0.040033
     44 H133        -1.0010    -3.6550     3.8060 hc         1 CM3       0.040033
     45 H15          1.1520     0.7990     3.8240 ha         1 CM3       0.117000
     46 H16          3.3870     1.7840     3.4990 ha         1 CM3       0.120000
     47 H18          5.6720     0.4550     1.0840 ho         1 CM3       0.462000
     48 H19          4.2530    -1.1290     0.4360 ha         1 CM3       0.120000
     49 H20          2.0160    -2.1310     0.7470 ha         1 CM3       0.117000
     50 H22          0.3800     1.2730     0.3310 ha         1 CM3       0.119500
     51 H23          1.0050     1.4280    -2.0420 ha         1 CM3       0.123000
     52 H25         -1.0360    -2.3050    -2.8310 ha         1 CM3       0.123000
     53 H26         -1.6680    -2.4620    -0.4350 ha         1 CM3       0.119500
     54 H281         0.6060     1.6280    -4.3880 h1         1 CM3       0.033200
     55 H282         2.1010     0.7240    -4.0700 h1         1 CM3       0.033200
     56 H291         1.9210     1.1950    -6.4650 h1         1 CM3       0.038200
     57 H292         1.8730    -0.5350    -6.1500 h1         1 CM3       0.038200
     58 H311        -1.0400     1.8000    -5.8250 h1         1 CM3       0.027450
     59 H312        -0.2390     2.3510    -7.3030 h1         1 CM3       0.027450
     60 H321        -2.6910     2.2520    -7.6310 hc         1 CM3       0.047450
     61 H322        -2.7400     0.5720    -7.1040 hc         1 CM3       0.047450
     62 H331        -1.3730     1.6520    -9.6450 hc         1 CM3       0.038200
     63 H332        -2.8110     0.6320    -9.5830 hc         1 CM3       0.038200
     64 H341        -0.7080    -0.6940   -10.1040 hc         1 CM3       0.047450
     65 H342        -1.5060    -1.2570    -8.6380 hc         1 CM3       0.047450
     66 H351         0.9410     0.6000    -8.7830 h1         1 CM3       0.027450
     67 H352         0.9260    -1.0890    -8.2570 h1         1 CM3       0.027450
@<TRIPOS>BOND
     1     1     2 1   
     2     1    12 1   
     3     1    14 1   
     4     1    36 1   
     5     2     3 1   
     6     2    21 1   
     7     2    37 1   
     8     3     4 1   
     9     4     5 ar  
    10     4    11 ar  
    11     5     6 ar  
    12     5    38 1   
    13     6     7 ar  
    14     6    39 1   
    15     7     8 1   
    16     7     9 ar  
    17     8    40 1   
    18     9    10 1   
    19     9    11 ar  
    20    11    12 1   
    21    12    13 1   
    22    12    41 1   
    23    13    42 1   
    24    13    43 1   
    25    13    44 1   
    26    14    15 ar  
    27    14    20 ar  
    28    15    16 ar  
    29    15    45 1   
    30    16    17 ar  
    31    16    46 1   
    32    17    18 1   
    33    17    19 ar  
    34    18    47 1   
    35    19    20 ar  
    36    19    48 1   
    37    20    49 1   
    38    21    22 ar  
    39    21    26 ar  
    40    22    23 ar  
    41    22    50 1   
    42    23    24 ar  
    43    23    51 1   
    44    24    25 ar  
    45    24    27 1   
    46    25    26 ar  
    47    25    52 1   
    48    26    53 1   
    49    27    28 1   
    50    28    29 1   
    51    28    54 1   
    52    28    55 1   
    53    29    30 1   
    54    29    56 1   
    55    29    57 1   
    56    30    31 1   
    57    30    35 1   
    58    31    32 1   
    59    31    58 1   
    60    31    59 1   
    61    32    33 1   
    62    32    60 1   
    63    32    61 1   
    64    33    34 1   
    65    33    62 1   
    66    33    63 1   
    67    34    35 1   
    68    34    64 1   
    69    34    65 1   
    70    35    66 1   
    71    35    67 1   
@<TRIPOS>SUBSTRUCTURE
     1 CM3         1 TEMP              0 ****  ****    0 ROOT
