@<TRIPOS>MOLECULE
CM4
   64    68     1     0     0
SMALL
No Charge or Current Charge


@<TRIPOS>ATOM
      1 C1           0.1660     1.4950     2.3860 c6         1 CM4      -0.034400
      2 C2           1.1850     0.6910     1.5300 c6         1 CM4       0.233600
      3 O3           1.3800    -0.6390     2.0570 os         1 CM4      -0.334100
      4 C4           1.5680    -0.8060     3.4120 ca         1 CM4       0.105100
      5 C5           2.0530    -2.0410     3.8710 ca         1 CM4      -0.104000
      6 C6           2.2410    -2.2600     5.2470 ca         1 CM4      -0.113000
      7 C7           1.9340    -1.2450     6.1660 ca         1 CM4       0.106100
      8 O8           2.1140    -1.4630     7.4990 oh         1 CM4      -0.535100
      9 C9           1.4360    -0.0110     5.7140 ca         1 CM4      -0.173000
     10 C10          1.2490     0.2200     4.3350 ca         1 CM4      -0.114300
     11 C11          0.6750     1.5640     3.8580 c6         1 CM4      -0.010400
     12 C12          1.7400     2.6810     4.0550 c3         1 CM4      -0.086100
     13 C13         -1.2860     0.9840     2.2410 ca         1 CM4      -0.111300
     14 C14         -2.1310     1.5920     1.2870 ca         1 CM4      -0.059500
     15 C15         -3.4520     1.1450     1.1140 ca         1 CM4      -0.178000
     16 C16         -3.9440     0.0870     1.8890 ca         1 CM4       0.137100
     17 O17         -5.2260    -0.3400     1.7130 oh         1 CM4      -0.536100
     18 C18         -3.1160    -0.5280     2.8390 ca         1 CM4      -0.178000
     19 C19         -1.7940    -0.0840     3.0150 ca         1 CM4      -0.059500
     20 C20          0.7950     0.6010     0.0470 ca         1 CM4      -0.127300
     21 C21         -0.0700    -0.4110    -0.4190 ca         1 CM4      -0.051500
     22 C22         -0.4340    -0.4680    -1.7760 ca         1 CM4      -0.178500
     23 C23          0.0670     0.4900    -2.6820 ca         1 CM4       0.153100
     24 C24          0.9270     1.4970    -2.2180 ca         1 CM4      -0.178500
     25 C25          1.2910     1.5560    -0.8620 ca         1 CM4      -0.051500
     26 O26         -0.2550     0.4860    -4.0230 os         1 CM4      -0.353100
     27 C27         -1.1210    -0.5120    -4.6030 c3         1 CM4       0.162600
     28 C28         -1.2670    -0.2430    -6.1250 c3         1 CM4       0.171800
     29 N29         -0.1210    -0.6710    -6.9760 n3         1 CM4      -0.719600
     30 C30          1.1720     0.0020    -6.7190 c5         1 CM4       0.159300
     31 C31          2.0650    -0.5410    -7.8700 c5         1 CM4      -0.079900
     32 C32          1.0470    -0.9640    -8.9760 c5         1 CM4      -0.079900
     33 C33         -0.3130    -0.4680    -8.4260 c5         1 CM4       0.159300
     34 H1           0.1730     2.5230     1.9970 hc         1 CM4       0.063700
     35 H2           2.1560     1.2020     1.5910 h1         1 CM4       0.049700
     36 H5           2.2850    -2.8280     3.1580 ha         1 CM4       0.131000
     37 H6           2.6200    -3.2160     5.5990 ha         1 CM4       0.131000
     38 HO8          1.8500    -0.6530     7.9860 ho         1 CM4       0.461000
     39 H9           1.1880     0.7700     6.4300 ha         1 CM4       0.111000
     40 H11         -0.1690     1.8430     4.5040 hc         1 CM4       0.066700
     41 H121         2.0340     2.7680     5.1070 hc         1 CM4       0.037700
     42 H122         2.6490     2.4810     3.4760 hc         1 CM4       0.037700
     43 H123         1.3540     3.6600     3.7450 hc         1 CM4       0.037700
     44 H14         -1.7620     2.4090     0.6710 ha         1 CM4       0.118000
     45 H15         -4.0920     1.6200     0.3740 ha         1 CM4       0.119500
     46 H17         -5.3940    -1.0790     2.3360 ho         1 CM4       0.463000
     47 H18         -3.4880    -1.3510     3.4440 ha         1 CM4       0.119500
     48 H19         -1.1730    -0.5820     3.7530 ha         1 CM4       0.118000
     49 H21         -0.4700    -1.1490     0.2730 ha         1 CM4       0.119500
     50 H22         -1.1040    -1.2580    -2.1000 ha         1 CM4       0.122500
     51 H24          1.3130     2.2370    -2.9140 ha         1 CM4       0.122500
     52 H25          1.9540     2.3470    -0.5180 ha         1 CM4       0.119500
     53 H271        -0.7230    -1.5230    -4.4480 h1         1 CM4       0.044700
     54 H272        -2.1160    -0.4570    -4.1420 h1         1 CM4       0.044700
     55 H281        -2.1670    -0.7780    -6.4600 h1         1 CM4       0.041200
     56 H282        -1.4680     0.8270    -6.2720 h1         1 CM4       0.041200
     57 H301         1.0690     1.0950    -6.7840 h1         1 CM4       0.038450
     58 H302         1.5900    -0.2420    -5.7330 h1         1 CM4       0.038450
     59 H311         2.6590    -1.3990    -7.5380 hc         1 CM4       0.045950
     60 H312         2.7690     0.2220    -8.2210 hc         1 CM4       0.045950
     61 H321         1.0410    -2.0530    -9.1030 hc         1 CM4       0.045950
     62 H322         1.2790    -0.5250    -9.9530 hc         1 CM4       0.045950
     63 H331        -1.1560    -1.0470    -8.8270 h1         1 CM4       0.038450
     64 H332        -0.4790     0.5930    -8.6650 h1         1 CM4       0.038450
@<TRIPOS>BOND
     1     1     2 1   
     2     1    11 1   
     3     1    13 1   
     4     1    34 1   
     5     2     3 1   
     6     2    20 1   
     7     2    35 1   
     8     3     4 1   
     9     4     5 ar  
    10     4    10 ar  
    11     5     6 ar  
    12     5    36 1   
    13     6     7 ar  
    14     6    37 1   
    15     7     8 1   
    16     7     9 ar  
    17     8    38 1   
    18     9    10 ar  
    19     9    39 1   
    20    10    11 1   
    21    11    12 1   
    22    11    40 1   
    23    12    41 1   
    24    12    42 1   
    25    12    43 1   
    26    13    14 ar  
    27    13    19 ar  
    28    14    15 ar  
    29    14    44 1   
    30    15    16 ar  
    31    15    45 1   
    32    16    17 1   
    33    16    18 ar  
    34    17    46 1   
    35    18    19 ar  
    36    18    47 1   
    37    19    48 1   
    38    20    21 ar  
    39    20    25 ar  
    40    21    22 ar  
    41    21    49 1   
    42    22    23 ar  
    43    22    50 1   
    44    23    24 ar  
    45    23    26 1   
    46    24    25 ar  
    47    24    51 1   
    48    25    52 1   
    49    26    27 1   
    50    27    28 1   
    51    27    53 1   
    52    27    54 1   
    53    28    29 1   
    54    28    55 1   
    55    28    56 1   
    56    29    30 1   
    57    29    33 1   
    58    30    31 1   
    59    30    57 1   
    60    30    58 1   
    61    31    32 1   
    62    31    59 1   
    63    31    60 1   
    64    32    33 1   
    65    32    61 1   
    66    32    62 1   
    67    33    63 1   
    68    33    64 1   
@<TRIPOS>SUBSTRUCTURE
     1 CM4         1 TEMP              0 ****  ****    0 ROOT
