@<TRIPOS>MOLECULE
CM4
   64    68     1     0     0
SMALL
bcc


@<TRIPOS>ATOM
      1 C1           0.1690     1.4420     2.3220 c6         1 CM4      -0.034400
      2 C2           1.1610     0.5640     1.5330 c6         1 CM4       0.210400
      3 O3           1.2170    -0.7370     2.0820 os         1 CM4      -0.310900
      4 C4           1.4410    -0.8110     3.4190 ca         1 CM4       0.105100
      5 C5           1.9010    -2.0260     3.9200 ca         1 CM4      -0.122000
      6 C6           2.1220    -2.1920     5.2740 ca         1 CM4      -0.131000
      7 C7           1.8870    -1.1330     6.1500 ca         1 CM4       0.106100
      8 O8           2.1200    -1.3380     7.4670 oh         1 CM4      -0.496100
      9 C9           1.4280     0.0750     5.6450 ca         1 CM4      -0.191000
     10 C10          1.1980     0.2540     4.2810 ca         1 CM4      -0.114300
     11 C11          0.6830     1.5750     3.7650 c6         1 CM4      -0.010400
     12 C12          1.7580     2.6590     3.8650 c3         1 CM4      -0.086100
     13 C13         -1.2510     0.9500     2.1940 ca         1 CM4      -0.111300
     14 C14         -2.0410     1.4180     1.1440 ca         1 CM4      -0.077500
     15 C15         -3.3400     0.9820     0.9520 ca         1 CM4      -0.196000
     16 C16         -3.8910     0.0450     1.8230 ca         1 CM4       0.137100
     17 O17         -5.1600    -0.3570     1.5990 oh         1 CM4      -0.497100
     18 C18         -3.1250    -0.4290     2.8810 ca         1 CM4      -0.196000
     19 C19         -1.8230     0.0210     3.0580 ca         1 CM4      -0.077500
     20 C20          0.8240     0.4560     0.0750 ca         1 CM4      -0.127300
     21 C21         -0.0090    -0.5320    -0.4300 ca         1 CM4      -0.069500
     22 C22         -0.3540    -0.5670    -1.7760 ca         1 CM4      -0.196500
     23 C23          0.1270     0.4110    -2.6430 ca         1 CM4       0.153100
     24 C24          0.9640     1.4110    -2.1430 ca         1 CM4      -0.196500
     25 C25          1.3050     1.4230    -0.8040 ca         1 CM4      -0.069500
     26 O26         -0.1550     0.4740    -3.9580 os         1 CM4      -0.329900
     27 C27         -1.0200    -0.4950    -4.5260 c3         1 CM4       0.139400
     28 C28         -1.1870    -0.2150    -6.0030 c3         1 CM4       0.171800
     29 N29         -0.0870    -0.6500    -6.8310 n3         1 CM4      -0.719600
     30 C30          1.1730     0.0560    -6.6570 c5         1 CM4       0.159300
     31 C31          2.0060    -0.4210    -7.8450 c5         1 CM4      -0.079900
     32 C32          0.9660    -0.7220    -8.9430 c5         1 CM4      -0.079900
     33 C33         -0.3840    -0.5190    -8.2490 c5         1 CM4       0.159300
     34 H1           0.2100     2.4350     1.8630 hc         1 CM4       0.063700
     35 H2           2.1540     1.0290     1.6210 h1         1 CM4       0.049700
     36 H5           2.0830    -2.8480     3.2380 ha         1 CM4       0.149000
     37 H6           2.4780    -3.1410     5.6540 ha         1 CM4       0.149000
     38 HO8          1.9010    -0.5470     7.9710 ho         1 CM4       0.422000
     39 H9           1.2340     0.9020     6.3210 ha         1 CM4       0.129000
     40 H11         -0.1550     1.8840     4.3980 hc         1 CM4       0.066700
     41 H121         2.1210     2.7650     4.8870 hc         1 CM4       0.037700
     42 H122         2.6170     2.4280     3.2330 hc         1 CM4       0.037700
     43 H123         1.3570     3.6240     3.5510 hc         1 CM4       0.037700
     44 H14         -1.6280     2.1430     0.4520 ha         1 CM4       0.136000
     45 H15         -3.9290     1.3660     0.1280 ha         1 CM4       0.137500
     46 H17         -5.4230    -1.0130     2.2530 ho         1 CM4       0.424000
     47 H18         -3.5390    -1.1520     3.5760 ha         1 CM4       0.137500
     48 H19         -1.2620    -0.3690     3.8980 ha         1 CM4       0.136000
     49 H21         -0.4120    -1.2940     0.2240 ha         1 CM4       0.137500
     50 H22         -1.0020    -1.3600    -2.1250 ha         1 CM4       0.140500
     51 H24          1.3490     2.1710    -2.8120 ha         1 CM4       0.140500
     52 H25          1.9600     2.2060    -0.4380 ha         1 CM4       0.137500
     53 H271        -0.6250    -1.5070    -4.3800 h1         1 CM4       0.044700
     54 H272        -2.0020    -0.4480    -4.0410 h1         1 CM4       0.044700
     55 H281        -2.0780    -0.7630    -6.3240 h1         1 CM4       0.041200
     56 H282        -1.4190     0.8560    -6.1440 h1         1 CM4       0.041200
     57 H301         1.0340     1.1500    -6.7000 h1         1 CM4       0.038450
     58 H302         1.6380    -0.1760    -5.7000 h1         1 CM4       0.038450
     59 H311         2.5560    -1.3260    -7.5810 hc         1 CM4       0.045950
     60 H312         2.7410     0.3240    -8.1490 hc         1 CM4       0.045950
     61 H321         1.0710    -1.7420    -9.3130 hc         1 CM4       0.045950
     62 H322         1.0660    -0.0590    -9.8020 hc         1 CM4       0.045950
     63 H331        -1.1430    -1.2430    -8.5550 h1         1 CM4       0.038450
     64 H332        -0.7790     0.4840    -8.4820 h1         1 CM4       0.038450
@<TRIPOS>BOND
     1     1     2 1   
     2     1    11 1   
     3     1    13 1   
     4     1    34 1   
     5     2     3 1   
     6     2    20 1   
     7     2    35 1   
     8     3     4 1   
     9     4     5 ar  
    10     4    10 ar  
    11     5     6 ar  
    12     5    36 1   
    13     6     7 ar  
    14     6    37 1   
    15     7     8 1   
    16     7     9 ar  
    17     8    38 1   
    18     9    10 ar  
    19     9    39 1   
    20    10    11 1   
    21    11    12 1   
    22    11    40 1   
    23    12    41 1   
    24    12    42 1   
    25    12    43 1   
    26    13    14 ar  
    27    13    19 ar  
    28    14    15 ar  
    29    14    44 1   
    30    15    16 ar  
    31    15    45 1   
    32    16    17 1   
    33    16    18 ar  
    34    17    46 1   
    35    18    19 ar  
    36    18    47 1   
    37    19    48 1   
    38    20    21 ar  
    39    20    25 ar  
    40    21    22 ar  
    41    21    49 1   
    42    22    23 ar  
    43    22    50 1   
    44    23    24 ar  
    45    23    26 1   
    46    24    25 ar  
    47    24    51 1   
    48    25    52 1   
    49    26    27 1   
    50    27    28 1   
    51    27    53 1   
    52    27    54 1   
    53    28    29 1   
    54    28    55 1   
    55    28    56 1   
    56    29    30 1   
    57    29    33 1   
    58    30    31 1   
    59    30    57 1   
    60    30    58 1   
    61    31    32 1   
    62    31    59 1   
    63    31    60 1   
    64    32    33 1   
    65    32    61 1   
    66    32    62 1   
    67    33    63 1   
    68    33    64 1   
@<TRIPOS>SUBSTRUCTURE
     1 CM4         1 TEMP              0 ****  ****    0 ROOT
