@<TRIPOS>MOLECULE
CM5
   76    78     1     0     0
SMALL
bcc


@<TRIPOS>ATOM
      1 C7           9.8980     0.6690    -1.4260 c6         1 CM5      -0.071400
      2 C8          11.3340     0.3000    -1.0690 c6         1 CM5      -0.072900
      3 C9          11.6420     0.6150     0.3910 c6         1 CM5      -0.074400
      4 C10         10.6390    -0.0670     1.3160 c6         1 CM5      -0.072900
      5 C11          9.2030     0.3010     0.9520 c6         1 CM5      -0.071400
      6 C6           8.8780    -0.0090    -0.5100 c6         1 CM5      -0.058700
      7 C5           7.4560     0.4010    -0.8930 c3         1 CM5      -0.072400
      8 C4           6.3520    -0.3660    -0.1770 c3         1 CM5      -0.073400
      9 C3           4.9570     0.0510    -0.6250 c3         1 CM5      -0.074400
     10 C2           3.8550    -0.7580     0.0470 c3         1 CM5      -0.080400
     11 C1           2.4780    -0.3040    -0.3870 c3         1 CM5       0.142400
     12 O12          1.5070    -1.1650     0.1920 os         1 CM5      -0.409600
     13 C13          0.2030    -0.8960    -0.1550 c6         1 CM5       0.317900
     14 C18         -0.6320    -2.1500     0.0860 c6         1 CM5       0.090100
     15 O22         -0.2490    -3.2050    -0.7590 oh         1 CM5      -0.603800
     16 C17         -2.0870    -1.8300    -0.2180 c6         1 CM5       0.138100
     17 O21         -2.9380    -2.9050     0.1090 oh         1 CM5      -0.606800
     18 O14         -0.2750     0.1440     0.6590 os         1 CM5      -0.417600
     19 C15         -1.5840     0.5600     0.3330 c6         1 CM5       0.141100
     20 C19         -1.9050     1.7640     1.1910 c3         1 CM5       0.141400
     21 O20         -1.0170     2.8030     0.8470 oh         1 CM5      -0.591800
     22 C16         -2.5570    -0.6070     0.5620 c6         1 CM5       0.133100
     23 O23         -3.8480    -0.2870     0.0970 os         1 CM5      -0.451600
     24 C24         -4.9130    -0.1940     1.0020 c6         1 CM5       0.318900
     25 O25         -5.3010     1.1280     1.2020 os         1 CM5      -0.408600
     26 C26         -5.7730     1.8220     0.0560 c6         1 CM5       0.146100
     27 C30         -6.1520     3.2160     0.5110 c3         1 CM5       0.146400
     28 O31         -4.9950     3.8790     0.9610 oh         1 CM5      -0.596800
     29 C27         -6.9620     1.0870    -0.5650 c6         1 CM5       0.127100
     30 O32         -7.3120     1.7650    -1.7480 oh         1 CM5      -0.596800
     31 C28         -6.5950    -0.3670    -0.8340 c6         1 CM5       0.085100
     32 O33         -7.7520    -1.0130    -1.3140 oh         1 CM5      -0.604800
     33 C29         -6.0870    -1.0090     0.4540 c6         1 CM5       0.096100
     34 O34         -5.7840    -2.3690     0.2930 oh         1 CM5      -0.604800
     35 H71          9.6910     0.4080    -2.4680 hc         1 CM5       0.037950
     36 H72          9.7730     1.7570    -1.3500 hc         1 CM5       0.037950
     37 H81         11.4880    -0.7690    -1.2480 hc         1 CM5       0.037700
     38 H82         12.0320     0.8260    -1.7260 hc         1 CM5       0.037700
     39 H91         12.6600     0.3050     0.6410 hc         1 CM5       0.037700
     40 H92         11.5990     1.6980     0.5460 hc         1 CM5       0.037700
     41 H101        10.7630    -1.1530     1.2450 hc         1 CM5       0.037700
     42 H102        10.8400     0.1990     2.3570 hc         1 CM5       0.037700
     43 H111         9.0470     1.3730     1.1250 hc         1 CM5       0.037950
     44 H112         8.5120    -0.2220     1.6170 hc         1 CM5       0.037950
     45 H6           8.9670    -1.0960    -0.6540 hc         1 CM5       0.044700
     46 H51          7.3320     0.2660    -1.9740 hc         1 CM5       0.037200
     47 H52          7.3350     1.4760    -0.7090 hc         1 CM5       0.037200
     48 H41          6.4340    -0.2260     0.9050 hc         1 CM5       0.039200
     49 H42          6.4840    -1.4390    -0.3540 hc         1 CM5       0.039200
     50 H31A         4.8770    -0.0590    -1.7120 hc         1 CM5       0.039200
     51 H32A         4.8160     1.1170    -0.4160 hc         1 CM5       0.039200
     52 H21A         3.9440    -0.6700     1.1350 hc         1 CM5       0.051700
     53 H22A         3.9810    -1.8170    -0.1980 hc         1 CM5       0.051700
     54 H11          2.3950    -0.3380    -1.4810 h1         1 CM5       0.035700
     55 H12          2.3090     0.7340    -0.0810 h1         1 CM5       0.035700
     56 H13          0.1270    -0.6020    -1.2190 h2         1 CM5       0.034700
     57 H18         -0.5380    -2.4270     1.1470 h1         1 CM5       0.068700
     58 H22          0.6270    -3.5050    -0.4960 ho         1 CM5       0.428000
     59 H17         -2.1680    -1.5920    -1.2910 h1         1 CM5       0.055700
     60 H21         -2.7320    -3.6480    -0.4690 ho         1 CM5       0.430000
     61 H15         -1.6400     0.8520    -0.7290 h1         1 CM5       0.059700
     62 H191        -2.9440     2.0590     1.0260 h1         1 CM5       0.045200
     63 H192        -1.8110     1.4820     2.2500 h1         1 CM5       0.045200
     64 H20         -1.2760     3.5870     1.3400 ho         1 CM5       0.408000
     65 H16         -2.5780    -0.8480     1.6350 h1         1 CM5       0.065700
     66 H24         -4.6130    -0.5730     1.9860 h2         1 CM5       0.084700
     67 H26         -4.9770     1.9010    -0.6980 h1         1 CM5       0.075700
     68 H301        -6.9110     3.1350     1.3020 h1         1 CM5       0.037200
     69 H302        -6.6170     3.7400    -0.3290 h1         1 CM5       0.037200
     70 H31         -5.2490     4.7650     1.2360 ho         1 CM5       0.406000
     71 H27         -7.7960     1.1000     0.1570 h1         1 CM5       0.048700
     72 H32         -8.0700     1.3160    -2.1360 ho         1 CM5       0.426000
     73 H28         -5.7980    -0.3910    -1.5930 h1         1 CM5       0.057700
     74 H33         -7.5070    -1.9030    -1.5870 ho         1 CM5       0.424000
     75 H29         -6.8890    -0.9520     1.1990 h1         1 CM5       0.087700
     76 H34         -4.8590    -2.4780     0.0200 ho         1 CM5       0.437000
@<TRIPOS>BOND
     1     1     2 1   
     2     1     6 1   
     3     1    35 1   
     4     1    36 1   
     5     2     3 1   
     6     2    37 1   
     7     2    38 1   
     8     3     4 1   
     9     3    39 1   
    10     3    40 1   
    11     4     5 1   
    12     4    41 1   
    13     4    42 1   
    14     5     6 1   
    15     5    43 1   
    16     5    44 1   
    17     6     7 1   
    18     6    45 1   
    19     7     8 1   
    20     7    46 1   
    21     7    47 1   
    22     8     9 1   
    23     8    48 1   
    24     8    49 1   
    25     9    10 1   
    26     9    50 1   
    27     9    51 1   
    28    10    11 1   
    29    10    52 1   
    30    10    53 1   
    31    11    12 1   
    32    11    54 1   
    33    11    55 1   
    34    12    13 1   
    35    13    14 1   
    36    13    18 1   
    37    13    56 1   
    38    14    15 1   
    39    14    16 1   
    40    14    57 1   
    41    15    58 1   
    42    16    17 1   
    43    16    22 1   
    44    16    59 1   
    45    17    60 1   
    46    18    19 1   
    47    19    20 1   
    48    19    22 1   
    49    19    61 1   
    50    20    21 1   
    51    20    62 1   
    52    20    63 1   
    53    21    64 1   
    54    22    23 1   
    55    22    65 1   
    56    23    24 1   
    57    24    25 1   
    58    24    33 1   
    59    24    66 1   
    60    25    26 1   
    61    26    27 1   
    62    26    29 1   
    63    26    67 1   
    64    27    28 1   
    65    27    68 1   
    66    27    69 1   
    67    28    70 1   
    68    29    30 1   
    69    29    31 1   
    70    29    71 1   
    71    30    72 1   
    72    31    32 1   
    73    31    33 1   
    74    31    73 1   
    75    32    74 1   
    76    33    34 1   
    77    33    75 1   
    78    34    76 1   
@<TRIPOS>SUBSTRUCTURE
     1 CM5         1 TEMP              0 ****  ****    0 ROOT
