@<TRIPOS>MOLECULE
CM5
   76    78     1     0     0
SMALL
No Charge or Current Charge


@<TRIPOS>ATOM
      1 C7          10.1610     0.7100    -1.2760 c6         1 CM5      -0.071400
      2 C8          11.5990     0.2700    -0.9070 c6         1 CM5      -0.072900
      3 C9          11.8630     0.4420     0.6080 c6         1 CM5      -0.074400
      4 C10         10.8120    -0.3250     1.4440 c6         1 CM5      -0.072900
      5 C11          9.3710     0.1090     1.0750 c6         1 CM5      -0.071400
      6 C6           9.0910    -0.0570    -0.4480 c6         1 CM5      -0.058700
      7 C5           7.6540     0.3960    -0.8520 c3         1 CM5      -0.072400
      8 C4           6.4960    -0.4080    -0.2130 c3         1 CM5      -0.073400
      9 C3           5.1060     0.0170    -0.7370 c3         1 CM5      -0.074400
     10 C2           3.9490    -0.7810    -0.0970 c3         1 CM5      -0.080400
     11 C1           2.5640    -0.3550    -0.6210 c3         1 CM5       0.165600
     12 O12          1.5810    -1.1650     0.0420 os         1 CM5      -0.456000
     13 C13          0.2140    -0.9360    -0.3380 c6         1 CM5       0.364300
     14 C18         -0.7190    -1.9750     0.3640 c6         1 CM5       0.113300
     15 O22         -0.3650    -3.3470     0.0610 oh         1 CM5      -0.726000
     16 C17         -2.1820    -1.6870    -0.0630 c6         1 CM5       0.161300
     17 O21         -3.0540    -2.6700     0.5260 oh         1 CM5      -0.729000
     18 O14         -0.1770     0.3940     0.0560 os         1 CM5      -0.464000
     19 C15         -1.5280     0.7540    -0.3470 c6         1 CM5       0.164300
     20 C19         -1.7870     2.2450     0.0480 c3         1 CM5       0.164600
     21 O20         -0.8250     3.1620    -0.5170 oh         1 CM5      -0.714000
     22 C16         -2.5580    -0.2140     0.3110 c6         1 CM5       0.156300
     23 O23         -3.9110     0.1210    -0.0860 os         1 CM5      -0.498000
     24 C24         -4.9510    -0.2820     0.8330 c6         1 CM5       0.365300
     25 O25         -5.5330     0.9020     1.4170 os         1 CM5      -0.455000
     26 C26         -6.2350     1.7640     0.4770 c6         1 CM5       0.169300
     27 C30         -6.7390     3.0280     1.2490 c3         1 CM5       0.169600
     28 O31         -5.6840     3.7470     1.9250 oh         1 CM5      -0.719000
     29 C27         -7.4010     0.9760    -0.2000 c6         1 CM5       0.150300
     30 O32         -8.1080     1.7660    -1.1720 oh         1 CM5      -0.719000
     31 C28         -6.8290    -0.2950    -0.8910 c6         1 CM5       0.108300
     32 O33         -7.8840    -1.0670    -1.4950 oh         1 CM5      -0.667000
     33 C29         -6.0450    -1.1630     0.1340 c6         1 CM5       0.119300
     34 O34         -5.4930    -2.3300    -0.5260 oh         1 CM5      -0.727000
     35 H71          9.9950     0.5440    -2.3500 hc         1 CM5       0.037950
     36 H72         10.0550     1.7920    -1.1100 hc         1 CM5       0.037950
     37 H81         11.7490    -0.7800    -1.1930 hc         1 CM5       0.037700
     38 H82         12.3280     0.8580    -1.4810 hc         1 CM5       0.037700
     39 H91         12.8710     0.0810     0.8540 hc         1 CM5       0.037700
     40 H92         11.8400     1.5090     0.8700 hc         1 CM5       0.037700
     41 H101        10.9250    -1.4060     1.2790 hc         1 CM5       0.037700
     42 H102        10.9900    -0.1530     2.5140 hc         1 CM5       0.037700
     43 H111         9.2150     1.1560     1.3710 hc         1 CM5       0.037950
     44 H112         8.6630    -0.4900     1.6630 hc         1 CM5       0.037950
     45 H6           9.1630    -1.1250    -0.7010 hc         1 CM5       0.044700
     46 H51          7.5520     0.3240    -1.9420 hc         1 CM5       0.037200
     47 H52          7.5200     1.4570    -0.6060 hc         1 CM5       0.037200
     48 H41          6.5140    -0.2790     0.8750 hc         1 CM5       0.039200
     49 H42          6.6460    -1.4760    -0.4140 hc         1 CM5       0.039200
     50 H31A         5.0750    -0.1140    -1.8260 hc         1 CM5       0.039200
     51 H32A         4.9580     1.0870    -0.5390 hc         1 CM5       0.039200
     52 H21A         3.9750    -0.6480     0.9910 hc         1 CM5       0.051700
     53 H22A         4.0930    -1.8500    -0.2970 hc         1 CM5       0.051700
     54 H11          2.5200    -0.5030    -1.7090 h1         1 CM5       0.035700
     55 H12          2.4040     0.7100    -0.4080 h1         1 CM5       0.035700
     56 H13          0.1210    -1.0400    -1.4300 h2         1 CM5       0.034700
     57 H18         -0.6370    -1.8050     1.4490 h1         1 CM5       0.068700
     58 H22          0.6180    -3.4040     0.1550 ho         1 CM5       0.527000
     59 H17         -2.2320    -1.7730    -1.1590 h1         1 CM5       0.055700
     60 H21         -2.4710    -3.4690     0.6130 ho         1 CM5       0.529000
     61 H15         -1.6040     0.6740    -1.4420 h1         1 CM5       0.059700
     62 H191        -2.8000     2.5160    -0.2820 h1         1 CM5       0.045200
     63 H192        -1.7760     2.3130     1.1440 h1         1 CM5       0.045200
     64 H20         -1.0320     4.0560    -0.1580 ho         1 CM5       0.507000
     65 H16         -2.4710    -0.0890     1.4010 h1         1 CM5       0.065700
     66 H24         -4.5140    -0.8810     1.6470 h2         1 CM5       0.084700
     67 H26         -5.5290     2.1010    -0.2960 h1         1 CM5       0.075700
     68 H301        -7.4970     2.7030     1.9750 h1         1 CM5       0.037200
     69 H302        -7.2400     3.6910     0.5320 h1         1 CM5       0.037200
     70 H31         -6.1130     4.4750     2.4340 ho         1 CM5       0.505000
     71 H27         -8.0980     0.6550     0.5900 h1         1 CM5       0.048700
     72 H32         -8.5570     1.1000    -1.7490 ho         1 CM5       0.525000
     73 H28         -6.1190     0.0290    -1.6680 h1         1 CM5       0.057700
     74 H33         -7.4950    -1.9650    -1.6180 ho         1 CM5       0.463000
     75 H29         -6.7460    -1.4810     0.9220 h1         1 CM5       0.087700
     76 H34         -4.5680    -2.4530    -0.1540 ho         1 CM5       0.536000
@<TRIPOS>BOND
     1     1     2 1   
     2     1     6 1   
     3     1    35 1   
     4     1    36 1   
     5     2     3 1   
     6     2    37 1   
     7     2    38 1   
     8     3     4 1   
     9     3    39 1   
    10     3    40 1   
    11     4     5 1   
    12     4    41 1   
    13     4    42 1   
    14     5     6 1   
    15     5    43 1   
    16     5    44 1   
    17     6     7 1   
    18     6    45 1   
    19     7     8 1   
    20     7    46 1   
    21     7    47 1   
    22     8     9 1   
    23     8    48 1   
    24     8    49 1   
    25     9    10 1   
    26     9    50 1   
    27     9    51 1   
    28    10    11 1   
    29    10    52 1   
    30    10    53 1   
    31    11    12 1   
    32    11    54 1   
    33    11    55 1   
    34    12    13 1   
    35    13    14 1   
    36    13    18 1   
    37    13    56 1   
    38    14    15 1   
    39    14    16 1   
    40    14    57 1   
    41    15    58 1   
    42    16    17 1   
    43    16    22 1   
    44    16    59 1   
    45    17    60 1   
    46    18    19 1   
    47    19    20 1   
    48    19    22 1   
    49    19    61 1   
    50    20    21 1   
    51    20    62 1   
    52    20    63 1   
    53    21    64 1   
    54    22    23 1   
    55    22    65 1   
    56    23    24 1   
    57    24    25 1   
    58    24    33 1   
    59    24    66 1   
    60    25    26 1   
    61    26    27 1   
    62    26    29 1   
    63    26    67 1   
    64    27    28 1   
    65    27    68 1   
    66    27    69 1   
    67    28    70 1   
    68    29    30 1   
    69    29    31 1   
    70    29    71 1   
    71    30    72 1   
    72    31    32 1   
    73    31    33 1   
    74    31    73 1   
    75    32    74 1   
    76    33    34 1   
    77    33    75 1   
    78    34    76 1   
@<TRIPOS>SUBSTRUCTURE
     1 CM5         1 TEMP              0 ****  ****    0 ROOT
