@<TRIPOS>MOLECULE
CM6
   44    47     1     0     0
SMALL
abcg2


@<TRIPOS>ATOM
      1 O1           2.3790    -1.2620     1.6110 o          1 CM6      -0.540100
      2 C1           2.1690    -0.7780     0.5220 c          1 CM6       0.616100
      3 N1           3.0950    -0.1390    -0.2390 ns         1 CM6      -0.145000
      4 C2           4.4340     0.1030     0.0390 ca         1 CM6       0.018000
      5 C3           5.1600     0.8360    -0.9010 ca         1 CM6      -0.208000
      6 C4           6.4970     1.0920    -0.6670 ca         1 CM6       0.358400
      7 N2           7.1520     0.6800     0.4140 nb         1 CM6      -0.680000
      8 C5           6.4530    -0.0150     1.3020 ca         1 CM6       0.358400
      9 C6           5.1090    -0.3330     1.1790 ca         1 CM6      -0.208000
     10 C7           0.7880    -0.8180    -0.1440 c3         1 CM6       0.185800
     11 N3          -0.0890    -1.6250     0.6840 n7         1 CM6      -0.852300
     12 S1          -1.3770    -2.3960     0.0140 sy         1 CM6       1.182600
     13 O2          -2.0580    -3.0540     1.1110 o          1 CM6      -0.525500
     14 O3          -0.8850    -3.1650    -1.1150 o          1 CM6      -0.525500
     15 C8          -2.4310    -1.1330    -0.6310 ca         1 CM6      -0.272500
     16 C9          -2.7560    -1.0860    -1.9520 ca         1 CM6       0.040000
     17 C10         -3.5500    -0.0270    -2.4780 ca         1 CM6      -0.142000
     18 C11         -3.9890     0.9970    -1.6980 ca         1 CM6      -0.004000
     19 C12         -3.6580     0.9770    -0.3200 ca         1 CM6      -0.086000
     20 N4          -3.9890     1.8810     0.5930 nc         1 CM6      -0.300500
     21 S2          -3.3750     1.3900     1.9970 ss         1 CM6       0.630000
     22 N5          -2.6730     0.0140     1.5280 nc         1 CM6      -0.332500
     23 C13         -2.8940    -0.1040     0.2290 ca         1 CM6      -0.015000
     24 C14          0.2650     0.5820    -0.3980 ca         1 CM6      -0.150300
     25 C15         -0.1190     0.9670    -1.6770 ca         1 CM6      -0.093000
     26 C16         -0.6810     2.2180    -1.8940 ca         1 CM6      -0.115000
     27 C17         -0.8530     3.0940    -0.8340 ca         1 CM6      -0.089000
     28 C18         -0.4520     2.7230     0.4440 ca         1 CM6      -0.115000
     29 C19          0.1040     1.4720     0.6610 ca         1 CM6      -0.093000
     30 H1           2.7730     0.2380    -1.1200 hn         1 CM6       0.158000
     31 H3           4.6900     1.2050    -1.8040 ha         1 CM6       0.137000
     32 H4           7.0640     1.6610    -1.3950 h4         1 CM6       0.019600
     33 H5           6.9890    -0.3510     2.1820 h4         1 CM6       0.019600
     34 H6           4.6280    -0.9030     1.9550 ha         1 CM6       0.137000
     35 H7           0.9090    -1.3310    -1.1030 h1         1 CM6       0.097700
     36 HA          -0.3000    -1.2480     1.6030 hn         1 CM6       0.513000
     37 H9          -2.3980    -1.8480    -2.6300 ha         1 CM6       0.146000
     38 H10         -3.7840    -0.0420    -3.5330 ha         1 CM6       0.127000
     39 H11         -4.5710     1.8130    -2.1050 ha         1 CM6       0.140000
     40 H15          0.0010     0.2800    -2.5070 ha         1 CM6       0.122500
     41 H16         -0.9930     2.5010    -2.8900 ha         1 CM6       0.121500
     42 H17         -1.2980     4.0670    -1.0000 ha         1 CM6       0.123000
     43 H18         -0.5730     3.4080     1.2730 ha         1 CM6       0.121500
     44 H19          0.4020     1.1900     1.6650 ha         1 CM6       0.122500
@<TRIPOS>BOND
     1     1     2 2   
     2     2     3 1   
     3     2    10 1   
     4     3     4 1   
     5     3    30 1   
     6     4     5 ar  
     7     4     9 ar  
     8     5     6 ar  
     9     5    31 1   
    10     6     7 ar  
    11     6    32 1   
    12     7     8 ar  
    13     8     9 ar  
    14     8    33 1   
    15     9    34 1   
    16    10    11 1   
    17    10    24 1   
    18    10    35 1   
    19    11    12 1   
    20    11    36 1   
    21    12    13 2   
    22    12    14 2   
    23    12    15 1   
    24    15    16 ar  
    25    15    23 ar  
    26    16    17 ar  
    27    16    37 1   
    28    17    18 ar  
    29    17    38 1   
    30    18    19 ar  
    31    18    39 1   
    32    19    20 2   
    33    19    23 ar  
    34    20    21 1   
    35    21    22 1   
    36    22    23 2   
    37    24    25 ar  
    38    24    29 ar  
    39    25    26 ar  
    40    25    40 1   
    41    26    27 ar  
    42    26    41 1   
    43    27    28 ar  
    44    27    42 1   
    45    28    29 ar  
    46    28    43 1   
    47    29    44 1   
@<TRIPOS>SUBSTRUCTURE
     1 CM6         1 TEMP              0 ****  ****    0 ROOT
