@<TRIPOS>MOLECULE
CM6
   44    47     1     0     0
SMALL
No Charge or Current Charge


@<TRIPOS>ATOM
      1 O1           2.0700    -0.4680     1.7260 o          1 CM6      -0.540100
      2 C1           2.1540    -0.5160     0.5000 c          1 CM6       0.616100
      3 N1           3.3260    -0.2660    -0.2060 ns         1 CM6      -0.145000
      4 C2           4.6420     0.0640     0.2170 ca         1 CM6       0.018000
      5 C3           5.6160     0.3170    -0.7620 ca         1 CM6      -0.208000
      6 C4           6.9260     0.6440    -0.3750 ca         1 CM6       0.358400
      7 N2           7.3090     0.7300     0.9180 nb         1 CM6      -0.680000
      8 C5           6.3770     0.4850     1.8660 ca         1 CM6       0.358400
      9 C6           5.0460     0.1520     1.5640 ca         1 CM6      -0.208000
     10 C7           0.9230    -0.8450    -0.4130 c3         1 CM6       0.185800
     11 N3          -0.1010    -1.7120     0.2500 n7         1 CM6      -0.852300
     12 S1          -1.3890    -2.2940    -0.6370 sy         1 CM6       1.182600
     13 O2          -1.8880    -3.4380     0.1300 o          1 CM6      -0.525500
     14 O3          -0.9240    -2.4470    -2.0190 o          1 CM6      -0.525500
     15 C8          -2.5390    -0.9120    -0.5210 ca         1 CM6      -0.272500
     16 C9          -3.0460    -0.3400    -1.7090 ca         1 CM6       0.040000
     17 C10         -3.9260     0.7560    -1.6470 ca         1 CM6      -0.142000
     18 C11         -4.3030     1.2910    -0.4040 ca         1 CM6      -0.004000
     19 C12         -3.7920     0.7220     0.7740 ca         1 CM6      -0.086000
     20 N4          -4.0950     1.1860     2.0370 nc         1 CM6      -0.300500
     21 S2          -3.2290     0.1900     3.0890 ss         1 CM6       0.630000
     22 N5          -2.4750    -0.8050     1.9490 nc         1 CM6      -0.332500
     23 C13         -2.9230    -0.3600     0.7220 ca         1 CM6      -0.015000
     24 C14          0.2880     0.4520    -0.9230 ca         1 CM6      -0.150300
     25 C15          0.1750     0.6890    -2.3090 ca         1 CM6      -0.093000
     26 C16         -0.4210     1.8710    -2.7820 ca         1 CM6      -0.115000
     27 C17         -0.9070     2.8270    -1.8760 ca         1 CM6      -0.089000
     28 C18         -0.7920     2.6030    -0.4950 ca         1 CM6      -0.115000
     29 C19         -0.1940     1.4240    -0.0180 ca         1 CM6      -0.093000
     30 H1           3.2250    -0.3230    -1.2110 hn         1 CM6       0.158000
     31 H3           5.3720     0.2650    -1.8190 ha         1 CM6       0.137000
     32 H4           7.6920     0.8440    -1.1230 h4         1 CM6       0.019600
     33 H5           6.7080     0.5580     2.9010 h4         1 CM6       0.019600
     34 H6           4.3650    -0.0320     2.3870 ha         1 CM6       0.137000
     35 H7           1.3470    -1.3860    -1.2710 h1         1 CM6       0.097700
     36 HA          -0.6190    -1.1390     0.9170 hn         1 CM6       0.513000
     37 H9          -2.7590    -0.7330    -2.6830 ha         1 CM6       0.146000
     38 H10         -4.3110     1.1940    -2.5650 ha         1 CM6       0.127000
     39 H11         -4.9800     2.1410    -0.3550 ha         1 CM6       0.140000
     40 H15          0.5380    -0.0470    -3.0240 ha         1 CM6       0.122500
     41 H16         -0.5100     2.0430    -3.8530 ha         1 CM6       0.121500
     42 H17         -1.3720     3.7390    -2.2430 ha         1 CM6       0.123000
     43 H18         -1.1710     3.3420     0.2090 ha         1 CM6       0.121500
     44 H19         -0.1190     1.2660     1.0560 ha         1 CM6       0.122500
@<TRIPOS>BOND
     1     1     2 2   
     2     2     3 1   
     3     2    10 1   
     4     3     4 1   
     5     3    30 1   
     6     4     5 ar  
     7     4     9 ar  
     8     5     6 ar  
     9     5    31 1   
    10     6     7 ar  
    11     6    32 1   
    12     7     8 ar  
    13     8     9 ar  
    14     8    33 1   
    15     9    34 1   
    16    10    11 1   
    17    10    24 1   
    18    10    35 1   
    19    11    12 1   
    20    11    36 1   
    21    12    13 2   
    22    12    14 2   
    23    12    15 1   
    24    15    16 ar  
    25    15    23 ar  
    26    16    17 ar  
    27    16    37 1   
    28    17    18 ar  
    29    17    38 1   
    30    18    19 ar  
    31    18    39 1   
    32    19    20 2   
    33    19    23 ar  
    34    20    21 1   
    35    21    22 1   
    36    22    23 2   
    37    24    25 ar  
    38    24    29 ar  
    39    25    26 ar  
    40    25    40 1   
    41    26    27 ar  
    42    26    41 1   
    43    27    28 ar  
    44    27    42 1   
    45    28    29 ar  
    46    28    43 1   
    47    29    44 1   
@<TRIPOS>SUBSTRUCTURE
     1 CM6         1 TEMP              0 ****  ****    0 ROOT
