@<TRIPOS>MOLECULE
CM7
   79    83     1     0     0
SMALL
No Charge or Current Charge


@<TRIPOS>ATOM
      1 C01         26.6820     0.2800    37.3940 c3         1 CM7      -0.087100
      2 C02         27.4770    -1.0250    37.1940 c3         1 CM7      -0.004200
      3 C03         28.9690    -0.8220    37.2420 cc         1 CM7      -0.120400
      4 C04         29.8410    -1.2420    38.2390 cd         1 CM7      -0.146100
      5 N05         31.1550    -0.8540    37.9020 na         1 CM7      -0.097700
      6 C06         32.4070    -1.1920    38.5910 c3         1 CM7       0.114600
      7 C07         33.1210     0.0460    39.1520 c3         1 CM7      -0.330400
      8 S08         33.8960     1.0750    37.9020 s6         1 CM7       1.188100
      9 O09         35.3500     0.9340    38.0350 o          1 CM7      -0.524000
     10 O10         33.2860     2.4060    37.9590 o          1 CM7      -0.524000
     11 N11         33.4670     0.4050    36.3630 nh         1 CM7      -0.767300
     12 C12         34.5670     0.1490    35.4130 c3         1 CM7       0.209100
     13 C13         32.1180     0.4100    35.9380 ca         1 CM7       0.247000
     14 C14         31.7590     0.9910    34.6980 ca         1 CM7      -0.066000
     15 C15         30.4190     0.9870    34.2270 ca         1 CM7      -0.164600
     16 C16         29.4130     0.4000    35.0310 ca         1 CM7      -0.036000
     17 C17         29.7840    -0.1620    36.2580 ca         1 CM7      -0.078800
     18 C18         31.0820    -0.1750    36.6950 ca         1 CM7      -0.045200
     19 C19         30.0950     1.6260    32.8980 c          1 CM7       0.619700
     20 O20         30.8480     2.4240    32.3580 o          1 CM7      -0.600100
     21 N21         28.8810     1.2780    32.3420 ns         1 CM7      -0.504900
     22 C22         28.3200     1.8580    31.1100 c3         1 CM7       0.114700
     23 C23         28.4340     0.8570    29.9320 c3         1 CM7      -0.042100
     24 C24         29.8460     0.3100    29.7390 ca         1 CM7      -0.078300
     25 C25         30.8270     1.0900    29.0970 ca         1 CM7      -0.109500
     26 C26         32.1320     0.5940    28.9300 ca         1 CM7      -0.109500
     27 C27         32.4630    -0.6860    29.4040 ca         1 CM7      -0.112000
     28 C28         31.4890    -1.4700    30.0440 ca         1 CM7      -0.109500
     29 C29         30.1840    -0.9750    30.2100 ca         1 CM7      -0.109500
     30 C30         26.8580     2.3720    31.3220 c3         1 CM7       0.165300
     31 O31         26.4780     3.2310    30.2410 oh         1 CM7      -0.664000
     32 C32         26.6630     3.1990    32.6230 c3         1 CM7       0.121800
     33 N33         27.2420     4.5620    32.4790 n7         1 CM7      -0.876400
     34 C34         27.2510     5.3640    33.7180 c3         1 CM7       0.209100
     35 C35         28.2960     4.8130    34.6810 ca         1 CM7      -0.130300
     36 C36         27.9220     3.9580    35.7360 ca         1 CM7      -0.068000
     37 C37         28.8990     3.4400    36.6020 ca         1 CM7      -0.115000
     38 C38         30.2500     3.7770    36.4240 ca         1 CM7      -0.054000
     39 C39         30.6420     4.6370    35.3770 ca         1 CM7      -0.193300
     40 C40         29.6530     5.1500    34.5080 ca         1 CM7      -0.056000
     41 C41         32.1210     5.0090    35.2150 c3         1 CM7       0.356300
     42 F42         32.5520     5.7660    36.2510 f          1 CM7      -0.114000
     43 F43         32.3710     5.7140    34.0870 f          1 CM7      -0.114000
     44 F44         32.9140     3.9160    35.1700 f          1 CM7      -0.114000
     45 H011        26.9410     0.7450    38.3520 hc         1 CM7       0.034700
     46 H012        26.8960     0.9960    36.5920 hc         1 CM7       0.034700
     47 H013        25.6050     0.0750    37.3900 hc         1 CM7       0.034700
     48 H021        27.1780    -1.7430    37.9670 hc         1 CM7       0.044700
     49 H022        27.1970    -1.4710    36.2320 hc         1 CM7       0.044700
     50 H04         29.6240    -1.7920    39.1500 h4         1 CM7       0.215000
     51 H061        32.1630    -1.8660    39.4220 h1         1 CM7       0.068200
     52 H062        33.0640    -1.7420    37.9050 h1         1 CM7       0.068200
     53 H071        32.4200     0.6880    39.6950 h1         1 CM7       0.113700
     54 H072        33.9300    -0.2530    39.8260 h1         1 CM7       0.113700
     55 H121        34.1910    -0.3420    34.5070 h1         1 CM7       0.052700
     56 H122        35.0540     1.0890    35.1220 h1         1 CM7       0.052700
     57 H123        35.3170    -0.5180    35.8580 h1         1 CM7       0.052700
     58 H14         32.5330     1.4500    34.0900 ha         1 CM7       0.130000
     59 H16         28.3690     0.3880    34.7300 ha         1 CM7       0.132000
     60 H21         28.3500     0.5650    32.8230 hn         1 CM7       0.317500
     61 H22         28.9280     2.7340    30.8450 h1         1 CM7       0.093700
     62 H231        27.7320     0.0310    30.0980 hc         1 CM7       0.061200
     63 H232        28.1030     1.3500    29.0100 hc         1 CM7       0.061200
     64 H30         26.1910     1.5000    31.3710 h1         1 CM7       0.033700
     65 H25         30.5790     2.0850    28.7320 ha         1 CM7       0.113000
     66 H29         29.4380    -1.5880    30.7110 ha         1 CM7       0.113000
     67 H26         32.8850     1.2030    28.4350 ha         1 CM7       0.113000
     68 H27         33.4740    -1.0690    29.2760 ha         1 CM7       0.112000
     69 H28         31.7450    -2.4620    30.4120 ha         1 CM7       0.113000
     70 H31         26.5480     4.1280    30.6520 ho         1 CM7       0.456000
     71 H321        25.5860     3.2710    32.8290 h1         1 CM7       0.054200
     72 H322        27.1050     2.6600    33.4710 h1         1 CM7       0.054200
     73 H33         28.2290     4.4610    32.2090 hn         1 CM7       0.414000
     74 H341        27.5020     6.4100    33.4910 h1         1 CM7       0.061200
     75 H342        26.2600     5.3680    34.1950 h1         1 CM7       0.061200
     76 H36         26.8780     3.6890    35.8810 ha         1 CM7       0.119000
     77 H40         29.9300     5.8140    33.6920 ha         1 CM7       0.124000
     78 H37         28.6110     2.7750    37.4120 ha         1 CM7       0.118000
     79 H38         30.9940     3.3700    37.1050 ha         1 CM7       0.131000
@<TRIPOS>BOND
     1     1     2 1   
     2     1    45 1   
     3     1    46 1   
     4     1    47 1   
     5     2     3 1   
     6     2    48 1   
     7     2    49 1   
     8     3     4 2   
     9     3    17 1   
    10     4     5 1   
    11     4    50 1   
    12     5     6 1   
    13     5    18 1   
    14     6     7 1   
    15     6    51 1   
    16     6    52 1   
    17     7     8 1   
    18     7    53 1   
    19     7    54 1   
    20     8     9 2   
    21     8    10 2   
    22     8    11 1   
    23    11    12 1   
    24    11    13 1   
    25    12    55 1   
    26    12    56 1   
    27    12    57 1   
    28    13    14 ar  
    29    13    18 ar  
    30    14    15 ar  
    31    14    58 1   
    32    15    16 ar  
    33    15    19 1   
    34    16    17 ar  
    35    16    59 1   
    36    17    18 ar  
    37    19    20 2   
    38    19    21 1   
    39    21    22 1   
    40    21    60 1   
    41    22    23 1   
    42    22    30 1   
    43    22    61 1   
    44    23    24 1   
    45    23    62 1   
    46    23    63 1   
    47    24    25 ar  
    48    24    29 ar  
    49    25    26 ar  
    50    25    65 1   
    51    26    27 ar  
    52    26    67 1   
    53    27    28 ar  
    54    27    68 1   
    55    28    29 ar  
    56    28    69 1   
    57    29    66 1   
    58    30    31 1   
    59    30    32 1   
    60    30    64 1   
    61    31    70 1   
    62    32    33 1   
    63    32    71 1   
    64    32    72 1   
    65    33    34 1   
    66    33    73 1   
    67    34    35 1   
    68    34    74 1   
    69    34    75 1   
    70    35    36 ar  
    71    35    40 ar  
    72    36    37 ar  
    73    36    76 1   
    74    37    38 ar  
    75    37    78 1   
    76    38    39 ar  
    77    38    79 1   
    78    39    40 ar  
    79    39    41 1   
    80    40    77 1   
    81    41    42 1   
    82    41    43 1   
    83    41    44 1   
@<TRIPOS>SUBSTRUCTURE
     1 CM7         1 TEMP              0 ****  ****    0 ROOT
