@<TRIPOS>MOLECULE
CM7
   79    83     1     0     0
SMALL
bcc


@<TRIPOS>ATOM
      1 C01         28.0380    -3.6980    34.8590 c3         1 CM7      -0.087100
      2 C02         29.5470    -3.9330    34.8030 c3         1 CM7      -0.004200
      3 C03         30.3190    -2.9740    35.6480 cc         1 CM7      -0.120400
      4 C04         30.9740    -3.2290    36.8160 cd         1 CM7      -0.096100
      5 N05         31.5420    -2.0800    37.3190 na         1 CM7      -0.068400
      6 C06         32.5210    -2.0290    38.3810 c3         1 CM7       0.085300
      7 C07         32.1230    -1.1690    39.5700 c3         1 CM7      -0.219600
      8 S08         31.5690     0.4850    39.1230 s6         1 CM7       1.218900
      9 O09         32.1020     1.4400    40.0800 o          1 CM7      -0.594800
     10 O10         30.1330     0.4250    38.9080 o          1 CM7      -0.594800
     11 N11         32.3280     0.7650    37.6540 nh         1 CM7      -0.628900
     12 C12         33.2030     1.9240    37.5290 c3         1 CM7       0.209100
     13 C13         31.6290     0.2900    36.5230 ca         1 CM7       0.108600
     14 C14         31.2690     1.0990    35.4640 ca         1 CM7      -0.084000
     15 C15         30.5180     0.5930    34.3880 ca         1 CM7      -0.164600
     16 C16         30.1140    -0.7290    34.3530 ca         1 CM7      -0.054000
     17 C17         30.4990    -1.5750    35.3950 ca         1 CM7      -0.078800
     18 C18         31.2660    -1.0590    36.4550 ca         1 CM7      -0.045200
     19 C19         30.2040     1.5110    33.2560 c          1 CM7       0.686700
     20 O20         31.0570     2.2440    32.7760 o          1 CM7      -0.600100
     21 N21         28.9300     1.4590    32.8270 ns         1 CM7      -0.571900
     22 C22         28.4400     2.1110    31.6330 c3         1 CM7       0.114700
     23 C23         27.6370     1.1070    30.7920 c3         1 CM7      -0.042100
     24 C24         28.3620    -0.2000    30.6280 ca         1 CM7      -0.078300
     25 C25         29.5410    -0.2780    29.8890 ca         1 CM7      -0.127500
     26 C26         30.2400    -1.4730    29.7890 ca         1 CM7      -0.127500
     27 C27         29.7680    -2.6160    30.4240 ca         1 CM7      -0.130000
     28 C28         28.5900    -2.5530    31.1550 ca         1 CM7      -0.127500
     29 C29         27.8970    -1.3520    31.2560 ca         1 CM7      -0.127500
     30 C30         27.6140     3.3520    31.9870 c3         1 CM7       0.142100
     31 O31         27.2870     3.9820    30.7690 oh         1 CM7      -0.601800
     32 C32         28.3670     4.2910    32.9250 c3         1 CM7       0.121800
     33 N33         27.6250     5.5260    33.1150 n7         1 CM7      -0.821200
     34 C34         27.8720     6.1760    34.3910 c3         1 CM7       0.209100
     35 C35         29.3310     6.4300    34.7000 ca         1 CM7      -0.130300
     36 C36         30.0140     5.6620    35.6380 ca         1 CM7      -0.086000
     37 C37         31.3650     5.8620    35.8750 ca         1 CM7      -0.133000
     38 C38         32.0610     6.8370    35.1750 ca         1 CM7      -0.072000
     39 C39         31.3890     7.6080    34.2360 ca         1 CM7      -0.193300
     40 C40         30.0340     7.4040    34.0000 ca         1 CM7      -0.074000
     41 C41         32.0880     8.6840    33.4680 c3         1 CM7       0.720200
     42 F42         31.5870     9.8980    33.7480 f          1 CM7      -0.235300
     43 F43         31.9530     8.5170    32.1440 f          1 CM7      -0.235300
     44 F44         33.3990     8.7380    33.7220 f          1 CM7      -0.235300
     45 H011        27.6600    -3.8360    35.8730 hc         1 CM7       0.034700
     46 H012        27.7780    -2.6870    34.5440 hc         1 CM7       0.034700
     47 H013        27.5110    -4.3940    34.2050 hc         1 CM7       0.034700
     48 H021        29.7690    -4.9550    35.1170 hc         1 CM7       0.044700
     49 H022        29.8860    -3.8550    33.7650 hc         1 CM7       0.044700
     50 H04         31.0940    -4.1640    37.3420 h4         1 CM7       0.165000
     51 H061        32.6690    -3.0430    38.7490 h1         1 CM7       0.068200
     52 H062        33.4780    -1.6900    37.9840 h1         1 CM7       0.068200
     53 H071        31.3020    -1.6090    40.1390 h1         1 CM7       0.113700
     54 H072        32.9850    -1.0540    40.2270 h1         1 CM7       0.113700
     55 H121        33.7850     1.8060    36.6190 h1         1 CM7       0.052700
     56 H122        32.6600     2.8700    37.4820 h1         1 CM7       0.052700
     57 H123        33.8950     1.9610    38.3640 h1         1 CM7       0.052700
     58 H14         31.5430     2.1470    35.4670 ha         1 CM7       0.148000
     59 H16         29.5590    -1.1170    33.5060 ha         1 CM7       0.150000
     60 H21         28.2770     0.8970    33.3500 hn         1 CM7       0.317500
     61 H22         29.3150     2.4350    31.0650 h1         1 CM7       0.093700
     62 H231        26.6690     0.9270    31.2710 hc         1 CM7       0.061200
     63 H232        27.4240     1.5550    29.8200 hc         1 CM7       0.061200
     64 H30         26.7000     3.0230    32.5070 h1         1 CM7       0.033700
     65 H25         29.9230     0.6060    29.3900 ha         1 CM7       0.131000
     66 H29         26.9800    -1.3100    31.8340 ha         1 CM7       0.131000
     67 H26         31.1540    -1.5130    29.2120 ha         1 CM7       0.131000
     68 H27         30.3120    -3.5480    30.3450 ha         1 CM7       0.130000
     69 H28         28.2080    -3.4370    31.6500 ha         1 CM7       0.131000
     70 H31         26.6580     4.6860    30.9620 ho         1 CM7       0.417000
     71 H321        28.4620     3.7950    33.8930 h1         1 CM7       0.054200
     72 H322        29.3880     4.4570    32.5610 h1         1 CM7       0.054200
     73 H33         27.8350     6.1750    32.3660 hn         1 CM7       0.358800
     74 H341        27.3210     7.1190    34.3980 h1         1 CM7       0.061200
     75 H342        27.4430     5.5580    35.1840 h1         1 CM7       0.061200
     76 H36         29.4800     4.8990    36.1930 ha         1 CM7       0.137000
     77 H40         29.5090     8.0080    33.2670 ha         1 CM7       0.142000
     78 H37         31.8840     5.2600    36.6090 ha         1 CM7       0.136000
     79 H38         33.1140     6.9840    35.3720 ha         1 CM7       0.149000
@<TRIPOS>BOND
     1     1     2 1   
     2     1    45 1   
     3     1    46 1   
     4     1    47 1   
     5     2     3 1   
     6     2    48 1   
     7     2    49 1   
     8     3     4 2   
     9     3    17 1   
    10     4     5 1   
    11     4    50 1   
    12     5     6 1   
    13     5    18 1   
    14     6     7 1   
    15     6    51 1   
    16     6    52 1   
    17     7     8 1   
    18     7    53 1   
    19     7    54 1   
    20     8     9 2   
    21     8    10 2   
    22     8    11 1   
    23    11    12 1   
    24    11    13 1   
    25    12    55 1   
    26    12    56 1   
    27    12    57 1   
    28    13    14 ar  
    29    13    18 ar  
    30    14    15 ar  
    31    14    58 1   
    32    15    16 ar  
    33    15    19 1   
    34    16    17 ar  
    35    16    59 1   
    36    17    18 ar  
    37    19    20 2   
    38    19    21 1   
    39    21    22 1   
    40    21    60 1   
    41    22    23 1   
    42    22    30 1   
    43    22    61 1   
    44    23    24 1   
    45    23    62 1   
    46    23    63 1   
    47    24    25 ar  
    48    24    29 ar  
    49    25    26 ar  
    50    25    65 1   
    51    26    27 ar  
    52    26    67 1   
    53    27    28 ar  
    54    27    68 1   
    55    28    29 ar  
    56    28    69 1   
    57    29    66 1   
    58    30    31 1   
    59    30    32 1   
    60    30    64 1   
    61    31    70 1   
    62    32    33 1   
    63    32    71 1   
    64    32    72 1   
    65    33    34 1   
    66    33    73 1   
    67    34    35 1   
    68    34    74 1   
    69    34    75 1   
    70    35    36 ar  
    71    35    40 ar  
    72    36    37 ar  
    73    36    76 1   
    74    37    38 ar  
    75    37    78 1   
    76    38    39 ar  
    77    38    79 1   
    78    39    40 ar  
    79    39    41 1   
    80    40    77 1   
    81    41    42 1   
    82    41    43 1   
    83    41    44 1   
@<TRIPOS>SUBSTRUCTURE
     1 CM7         1 TEMP              0 ****  ****    0 ROOT
