@<TRIPOS>MOLECULE
CM8
   80    83     1     0     0
SMALL
No Charge or Current Charge


@<TRIPOS>ATOM
      1 C02         27.2230    -3.1040    35.6820 c3         1 CM8      -0.127100
      2 C01         28.3890    -3.7620    34.9250 c3         1 CM8       0.216800
      3 C06         33.5690    -1.4760    40.5000 c6         1 CM8      -0.055400
      4 C07         32.5390    -0.3430    40.2810 c6         1 CM8      -0.340400
      5 S08         32.9360     0.6580    38.8330 s6         1 CM8       1.208100
      6 O10         31.7950     1.5260    38.5250 o          1 CM8      -0.534500
      7 O09         34.2840     1.2190    38.9750 o          1 CM8      -0.534500
      8 N11         33.0210    -0.5750    37.6200 nh         1 CM8      -0.768300
      9 C12         33.9940    -1.6500    37.9490 c6         1 CM8       0.203800
     10 C13         31.9760    -0.7650    36.6920 ca         1 CM8       0.301000
     11 C14         31.6150     0.2790    35.8200 ca         1 CM8      -0.094000
     12 C15         30.5850     0.1240    34.8680 ca         1 CM8      -0.093600
     13 C16         29.9310    -1.1280    34.7880 ca         1 CM8      -0.165000
     14 C17         30.2970    -2.1830    35.6400 ca         1 CM8       0.336000
     15 C18         31.3160    -2.0000    36.5800 ca         1 CM8      -0.203000
     16 O20         30.9490     2.2620    33.8330 o          1 CM8      -0.593100
     17 N21         29.0630     1.1440    33.2330 ns         1 CM8      -0.497900
     18 C22         28.6350     2.0240    32.1330 c3         1 CM8       0.076700
     19 C23         28.0870     1.1540    30.9700 c3         1 CM8      -0.042100
     20 C24         28.9690    -0.0550    30.6630 ca         1 CM8      -0.074300
     21 C29         28.5300    -1.3570    30.9800 ca         1 CM8      -0.106500
     22 C28         29.3580    -2.4650    30.7300 ca         1 CM8      -0.109500
     23 C27         30.6280    -2.2790    30.1590 ca         1 CM8      -0.110000
     24 C26         31.0700    -0.9850    29.8390 ca         1 CM8      -0.109500
     25 C25         30.2430     0.1240    30.0910 ca         1 CM8      -0.106500
     26 C30         27.6260     3.1220    32.6010 c3         1 CM8       0.153300
     27 O31         27.2870     3.9870    31.4930 oh         1 CM8      -0.648000
     28 C32         28.1510     3.9810    33.7910 c3         1 CM8       0.127800
     29 N33         27.1690     5.0210    34.1890 n7         1 CM8      -0.862400
     30 C34         27.6250     5.9890    35.2060 c3         1 CM8       0.209100
     31 C35         28.7510     6.8630    34.6660 ca         1 CM8      -0.136300
     32 C36         30.0880     6.6000    35.0210 ca         1 CM8      -0.070000
     33 C37         31.1220     7.4030    34.5140 ca         1 CM8      -0.115000
     34 C38         30.8290     8.4760    33.6560 ca         1 CM8      -0.055000
     35 C39         29.4930     8.7600    33.2990 ca         1 CM8      -0.199300
     36 C31         33.6400    -2.4030    39.2640 c6         1 CM8      -0.116400
     37 C40         28.4600     7.9410    33.8060 ca         1 CM8      -0.062000
     38 C41         29.1660     9.9220    32.3540 c3         1 CM8       0.355300
     39 F44         27.9740    10.4960    32.6410 f          1 CM8      -0.116000
     40 F43         29.1050     9.5070    31.0690 f          1 CM8      -0.116000
     41 N03         29.6780    -3.4330    35.5600 nu         1 CM8      -0.963200
     42 F42         30.0900    10.9090    32.4070 f          1 CM8      -0.116000
     43 H011        28.2400    -4.8510    34.9340 h1         1 CM8       0.054200
     44 H012        28.3800    -3.4400    33.8740 h1         1 CM8       0.054200
     45 H021        27.2010    -3.4370    36.7260 hc         1 CM8       0.042033
     46 H022        27.3070    -2.0110    35.6680 hc         1 CM8       0.042033
     47 H023        26.2690    -3.3770    35.2160 hc         1 CM8       0.042033
     48 H03         30.0640    -4.1430    36.1860 hn         1 CM8       0.474000
     49 H061        34.5630    -1.0520    40.7070 hc         1 CM8       0.062700
     50 H062        33.2940    -2.0630    41.3880 hc         1 CM8       0.062700
     51 H071        31.5360    -0.7450    40.0980 h1         1 CM8       0.102700
     52 H072        32.5090     0.3500    41.1310 h1         1 CM8       0.102700
     53 H311        34.3930    -3.1830    39.4400 hc         1 CM8       0.056700
     54 H312        32.6840    -2.9310    39.1550 hc         1 CM8       0.056700
     55 H121        34.0460    -2.3760    37.1240 h1         1 CM8       0.076700
     56 H122        35.0060    -1.2270    38.0360 h1         1 CM8       0.076700
     57 H14         32.1480     1.2230    35.8820 ha         1 CM8       0.143000
     58 H18         31.5870    -2.8250    37.2240 ha         1 CM8       0.111000
     59 H16         29.1600    -1.3000    34.0460 ha         1 CM8       0.129000
     60 H21         28.5280     0.3030    33.4010 hn         1 CM8       0.317500
     61 H22         29.5300     2.5360    31.7550 h1         1 CM8       0.080700
     62 H231        27.0720     0.8220    31.2220 hc         1 CM8       0.060700
     63 H232        27.9850     1.7730    30.0700 hc         1 CM8       0.060700
     64 H30         26.7200     2.6070    32.9510 h1         1 CM8       0.080700
     65 H25         30.5960     1.1230    29.8460 ha         1 CM8       0.110000
     66 H29         27.5500    -1.5120    31.4260 ha         1 CM8       0.110000
     67 H26         32.0540    -0.8400    29.3980 ha         1 CM8       0.111500
     68 H27         31.2690    -3.1370    29.9660 ha         1 CM8       0.113000
     69 H28         29.0150    -3.4670    30.9790 ha         1 CM8       0.111500
     70 H31         28.0910     4.5040    31.2710 ho         1 CM8       0.438000
     71 H321        28.3630     3.3250    34.6460 h1         1 CM8       0.048200
     72 H322        29.1030     4.4390    33.4880 h1         1 CM8       0.048200
     73 H33         26.9120     5.5440    33.3440 hn         1 CM8       0.418000
     74 H341        26.7920     6.6400    35.5080 h1         1 CM8       0.060700
     75 H342        27.9640     5.4680    36.1130 h1         1 CM8       0.060700
     76 H36         30.3270     5.7700    35.6830 ha         1 CM8       0.137000
     77 H40         27.4260     8.1370    33.5310 ha         1 CM8       0.120000
     78 H37         32.1540     7.1920    34.7850 ha         1 CM8       0.131000
     79 H38         31.6470     9.0810    33.2680 ha         1 CM8       0.131000
     80 C19         30.2330     1.2770    33.9510 c          1 CM8       0.614700
@<TRIPOS>BOND
     1     1     2 1   
     2     1    45 1   
     3     1    46 1   
     4     1    47 1   
     5     2    41 1   
     6     2    43 1   
     7     2    44 1   
     8     3     4 1   
     9     3    36 1   
    10     3    49 1   
    11     3    50 1   
    12     4     5 1   
    13     4    51 1   
    14     4    52 1   
    15     5     6 2   
    16     5     7 2   
    17     5     8 1   
    18     8     9 1   
    19     8    10 1   
    20     9    36 1   
    21     9    55 1   
    22     9    56 1   
    23    10    11 ar  
    24    10    15 ar  
    25    11    12 ar  
    26    11    57 1   
    27    12    13 ar  
    28    12    80 1   
    29    13    14 ar  
    30    13    59 1   
    31    14    15 ar  
    32    14    41 1   
    33    15    58 1   
    34    16    80 2   
    35    17    18 1   
    36    17    60 1   
    37    17    80 1   
    38    18    19 1   
    39    18    26 1   
    40    18    61 1   
    41    19    20 1   
    42    19    62 1   
    43    19    63 1   
    44    20    21 ar  
    45    20    25 ar  
    46    21    22 ar  
    47    21    66 1   
    48    22    23 ar  
    49    22    69 1   
    50    23    24 ar  
    51    23    68 1   
    52    24    25 ar  
    53    24    67 1   
    54    25    65 1   
    55    26    27 1   
    56    26    28 1   
    57    26    64 1   
    58    27    70 1   
    59    28    29 1   
    60    28    71 1   
    61    28    72 1   
    62    29    30 1   
    63    29    73 1   
    64    30    31 1   
    65    30    74 1   
    66    30    75 1   
    67    31    32 ar  
    68    31    37 ar  
    69    32    33 ar  
    70    32    76 1   
    71    33    34 ar  
    72    33    78 1   
    73    34    35 ar  
    74    34    79 1   
    75    35    37 ar  
    76    35    38 1   
    77    36    53 1   
    78    36    54 1   
    79    37    77 1   
    80    38    39 1   
    81    38    40 1   
    82    38    42 1   
    83    41    48 1   
@<TRIPOS>SUBSTRUCTURE
     1 CM8         1 TEMP              0 ****  ****    0 ROOT
