@<TRIPOS>MOLECULE
CM8
   80    83     1     0     0
SMALL
abcg2


@<TRIPOS>ATOM
      1 C02         28.2130    -3.5340    34.8310 c3         1 CM8      -0.127100
      2 C01         29.6850    -3.7760    34.5190 c3         1 CM8       0.216800
      3 C06         32.9310     0.1990    40.3240 c6         1 CM8      -0.055400
      4 C07         31.5570     0.7390    39.9400 c6         1 CM8      -0.340400
      5 S08         31.7000     1.8310    38.5380 s6         1 CM8       1.208100
      6 O10         30.3820     2.1510    38.0140 o          1 CM8      -0.534500
      7 O09         32.6000     2.9160    38.9050 o          1 CM8      -0.534500
      8 N11         32.4920     0.8810    37.4290 nh         1 CM8      -0.768300
      9 C12         33.7520     0.2950    37.9160 c6         1 CM8       0.203800
     10 C13         31.7450     0.2570    36.3950 ca         1 CM8       0.301000
     11 C14         31.3100     1.0430    35.3340 ca         1 CM8      -0.094000
     12 C15         30.5690     0.4450    34.3250 ca         1 CM8      -0.093600
     13 C16         30.3020    -0.9170    34.3310 ca         1 CM8      -0.165000
     14 C17         30.7820    -1.7250    35.3720 ca         1 CM8       0.336000
     15 C18         31.4840    -1.1040    36.4190 ca         1 CM8      -0.203000
     16 O20         30.8520     2.0630    32.6160 o          1 CM8      -0.593100
     17 N21         28.7880     1.1700    32.9070 ns         1 CM8      -0.497900
     18 C22         28.1220     1.8740    31.8360 c3         1 CM8       0.076700
     19 C23         27.2780     0.8900    31.0140 c3         1 CM8      -0.042100
     20 C24         28.0680    -0.3180    30.5970 ca         1 CM8      -0.074300
     21 C29         27.8780    -1.5460    31.2250 ca         1 CM8      -0.106500
     22 C28         28.6320    -2.6560    30.8650 ca         1 CM8      -0.109500
     23 C27         29.5970    -2.5500    29.8730 ca         1 CM8      -0.110000
     24 C26         29.7940    -1.3300    29.2380 ca         1 CM8      -0.109500
     25 C25         29.0340    -0.2250    29.5970 ca         1 CM8      -0.106500
     26 C30         27.2720     3.0450    32.3670 c3         1 CM8       0.153300
     27 O31         26.7610     3.8020    31.2910 oh         1 CM8      -0.648000
     28 C32         28.0440     3.9040    33.3620 c3         1 CM8       0.127800
     29 N33         27.2440     5.0170    33.8370 n7         1 CM8      -0.862400
     30 C34         27.6520     5.5170    35.1360 c3         1 CM8       0.209100
     31 C35         29.1250     5.8330    35.2840 ca         1 CM8      -0.136300
     32 C36         29.9340     5.0760    36.1260 ca         1 CM8      -0.070000
     33 C37         31.2910     5.3410    36.2390 ca         1 CM8      -0.115000
     34 C38         31.8650     6.3690    35.5060 ca         1 CM8      -0.055000
     35 C39         31.0650     7.1260    34.6580 ca         1 CM8      -0.199300
     36 C31         33.6020    -0.5490    39.1760 c6         1 CM8      -0.116400
     37 C40         29.7050     6.8580    34.5470 ca         1 CM8      -0.062000
     38 C41         31.6350     8.2460    33.8470 c3         1 CM8       0.355300
     39 F44         31.0390     9.4150    34.1260 f          1 CM8      -0.116000
     40 F43         31.4650     8.0430    32.5310 f          1 CM8      -0.116000
     41 N03         30.6090    -3.0780    35.3830 nu         1 CM8      -0.963200
     42 F42         32.9450     8.4190    34.0460 f          1 CM8      -0.116000
     43 H011        29.9090    -4.8380    34.6120 h1         1 CM8       0.054200
     44 H012        29.8970    -3.5190    33.4780 h1         1 CM8       0.054200
     45 H021        27.9800    -3.8260    35.8550 hc         1 CM8       0.042033
     46 H022        27.9330    -2.4870    34.7080 hc         1 CM8       0.042033
     47 H023        27.5830    -4.1240    34.1630 hc         1 CM8       0.042033
     48 H03         30.8350    -3.5410    36.2470 hn         1 CM8       0.474000
     49 H061        33.5620     1.0210    40.6670 hc         1 CM8       0.062700
     50 H062        32.8010    -0.4690    41.1750 hc         1 CM8       0.062700
     51 H071        30.8730    -0.0590    39.6430 h1         1 CM8       0.102700
     52 H072        31.0960     1.3100    40.7470 h1         1 CM8       0.102700
     53 H311        34.5960    -0.8730    39.4870 hc         1 CM8       0.056700
     54 H312        33.0360    -1.4570    38.9550 hc         1 CM8       0.056700
     55 H121        34.1590    -0.3000    37.1000 h1         1 CM8       0.076700
     56 H122        34.4610     1.1080    38.0900 h1         1 CM8       0.076700
     57 H14         31.5380     2.0990    35.3020 ha         1 CM8       0.143000
     58 H18         31.8280    -1.7100    37.2480 ha         1 CM8       0.111000
     59 H16         29.7610    -1.3560    33.5030 ha         1 CM8       0.129000
     60 H21         28.2250     0.5790    33.5000 hn         1 CM8       0.317500
     61 H22         28.9100     2.2870    31.2010 h1         1 CM8       0.080700
     62 H231        26.4130     0.5780    31.6080 hc         1 CM8       0.060700
     63 H232        26.8880     1.4140    30.1400 hc         1 CM8       0.060700
     64 H30         26.3930     2.6410    32.8820 h1         1 CM8       0.080700
     65 H25         29.1920     0.7210    29.0910 ha         1 CM8       0.110000
     66 H29         27.1260    -1.6390    32.0010 ha         1 CM8       0.110000
     67 H26         30.5400    -1.2400    28.4580 ha         1 CM8       0.111500
     68 H27         30.1880    -3.4120    29.5910 ha         1 CM8       0.113000
     69 H28         28.4620    -3.6060    31.3580 ha         1 CM8       0.111500
     70 H31         27.5030     4.1880    30.8120 ho         1 CM8       0.438000
     71 H321        28.2920     3.2840    34.2250 h1         1 CM8       0.048200
     72 H322        29.0030     4.2130    32.9220 h1         1 CM8       0.048200
     73 H33         27.2420     5.7650    33.1570 hn         1 CM8       0.418000
     74 H341        27.0610     6.4100    35.3520 h1         1 CM8       0.060700
     75 H342        27.3810     4.7750    35.8920 h1         1 CM8       0.060700
     76 H36         29.5020     4.2660    36.7000 ha         1 CM8       0.137000
     77 H40         29.0820     7.4480    33.8840 ha         1 CM8       0.120000
     78 H37         31.9050     4.7450    36.9030 ha         1 CM8       0.131000
     79 H38         32.9230     6.5680    35.6040 ha         1 CM8       0.131000
     80 C19         30.0930     1.3010    33.1970 c          1 CM8       0.614700
@<TRIPOS>BOND
     1     1     2 1   
     2     1    45 1   
     3     1    46 1   
     4     1    47 1   
     5     2    41 1   
     6     2    43 1   
     7     2    44 1   
     8     3     4 1   
     9     3    36 1   
    10     3    49 1   
    11     3    50 1   
    12     4     5 1   
    13     4    51 1   
    14     4    52 1   
    15     5     6 2   
    16     5     7 2   
    17     5     8 1   
    18     8     9 1   
    19     8    10 1   
    20     9    36 1   
    21     9    55 1   
    22     9    56 1   
    23    10    11 ar  
    24    10    15 ar  
    25    11    12 ar  
    26    11    57 1   
    27    12    13 ar  
    28    12    80 1   
    29    13    14 ar  
    30    13    59 1   
    31    14    15 ar  
    32    14    41 1   
    33    15    58 1   
    34    16    80 2   
    35    17    18 1   
    36    17    60 1   
    37    17    80 1   
    38    18    19 1   
    39    18    26 1   
    40    18    61 1   
    41    19    20 1   
    42    19    62 1   
    43    19    63 1   
    44    20    21 ar  
    45    20    25 ar  
    46    21    22 ar  
    47    21    66 1   
    48    22    23 ar  
    49    22    69 1   
    50    23    24 ar  
    51    23    68 1   
    52    24    25 ar  
    53    24    67 1   
    54    25    65 1   
    55    26    27 1   
    56    26    28 1   
    57    26    64 1   
    58    27    70 1   
    59    28    29 1   
    60    28    71 1   
    61    28    72 1   
    62    29    30 1   
    63    29    73 1   
    64    30    31 1   
    65    30    74 1   
    66    30    75 1   
    67    31    32 ar  
    68    31    37 ar  
    69    32    33 ar  
    70    32    76 1   
    71    33    34 ar  
    72    33    78 1   
    73    34    35 ar  
    74    34    79 1   
    75    35    37 ar  
    76    35    38 1   
    77    36    53 1   
    78    36    54 1   
    79    37    77 1   
    80    38    39 1   
    81    38    40 1   
    82    38    42 1   
    83    41    48 1   
@<TRIPOS>SUBSTRUCTURE
     1 CM8         1 TEMP              0 ****  ****    0 ROOT
