@<TRIPOS>MOLECULE
CM9
   51    52     1     0     0
SMALL
abcg2


@<TRIPOS>ATOM
      1 O1         -18.7290    -0.0520    68.2420 o          1 CM9      -0.577100
      2 C8         -18.5370    -0.6180    69.3070 c          1 CM9       0.596100
      3 C9         -19.6640    -1.1160    70.1810 c6         1 CM9      -0.146700
      4 C10        -20.1080     0.0160    71.1350 c6         1 CM9      -0.067400
      5 C11        -20.8580    -0.5350    72.3550 c6         1 CM9      -0.071400
      6 C12        -21.6320    -1.8030    72.0120 c6         1 CM9      -0.063700
      7 C13        -22.5460    -2.2440    73.1460 c3         1 CM9      -0.087100
      8 C14        -20.6470    -2.9190    71.6230 c6         1 CM9      -0.071400
      9 C15        -19.3620    -2.3810    70.9800 c6         1 CM9      -0.067400
     10 N3         -17.2800    -0.7960    69.7790 ns         1 CM9      -0.531900
     11 C7         -16.1340    -0.2570    69.0890 c3         1 CM9       0.029700
     12 C16        -14.8860    -0.3650    69.9730 c3         1 CM9      -0.087400
     13 C17        -14.9340     0.5960    71.1530 c3         1 CM9       0.051600
     14 S          -13.4860     0.4710    72.2330 ss         1 CM9      -0.413000
     15 C18        -13.8380    -1.0890    73.0780 c3         1 CM9       0.034900
     16 C6         -15.8610    -0.9470    67.7520 c          1 CM9       0.606100
     17 O2         -15.3350    -0.3450    66.8400 o          1 CM9      -0.558100
     18 N2         -16.1840    -2.2660    67.7230 ns         1 CM9      -0.139000
     19 C5         -15.9910    -3.1920    66.7090 ca         1 CM9       0.022000
     20 C1         -15.4290    -2.9120    65.4630 ca         1 CM9      -0.209000
     21 C2         -15.2990    -3.9520    64.5570 ca         1 CM9       0.357400
     22 N1         -15.6730    -5.2060    64.7810 nb         1 CM9      -0.682000
     23 C3         -16.2100    -5.4600    65.9700 ca         1 CM9       0.357400
     24 C4         -16.3890    -4.5080    66.9540 ca         1 CM9      -0.209000
     25 H9         -20.4880    -1.3340    69.4950 hc         1 CM9       0.087700
     26 H3         -17.1380    -1.2590    70.6630 hn         1 CM9       0.319500
     27 H101       -19.2370     0.5840    71.4730 hc         1 CM9       0.042450
     28 H102       -20.7410     0.7150    70.5840 hc         1 CM9       0.042450
     29 H151       -18.9110    -3.1500    70.3490 hc         1 CM9       0.042450
     30 H152       -18.6330    -2.1600    71.7680 hc         1 CM9       0.042450
     31 H111       -20.1490    -0.7600    73.1590 hc         1 CM9       0.043200
     32 H112       -21.5290     0.2320    72.7490 hc         1 CM9       0.043200
     33 H12        -22.2650    -1.5840    71.1420 hc         1 CM9       0.050700
     34 H131       -21.9800    -2.3900    74.0690 hc         1 CM9       0.035367
     35 H132       -23.3220    -1.5020    73.3440 hc         1 CM9       0.035367
     36 H133       -23.0420    -3.1880    72.9110 hc         1 CM9       0.035367
     37 H141       -20.3790    -3.4940    72.5140 hc         1 CM9       0.043200
     38 H142       -21.1420    -3.6160    70.9420 hc         1 CM9       0.043200
     39 H7         -16.3070     0.7960    68.8500 h1         1 CM9       0.101700
     40 H161       -14.7690    -1.3980    70.3120 hc         1 CM9       0.066200
     41 H162       -14.0070    -0.1330    69.3690 hc         1 CM9       0.066200
     42 H171       -14.9480     1.6250    70.7900 h1         1 CM9       0.073200
     43 H172       -15.8300     0.4630    71.7630 h1         1 CM9       0.073200
     44 H181       -13.8200    -1.9370    72.3960 h1         1 CM9       0.059700
     45 H182       -13.0610    -1.2350    73.8260 h1         1 CM9       0.059700
     46 H183       -14.8030    -1.0480    73.5810 h1         1 CM9       0.059700
     47 H2         -16.6130    -2.6310    68.5620 hn         1 CM9       0.154000
     48 H1         -15.0990    -1.9250    65.1870 ha         1 CM9       0.135500
     49 H4         -16.8320    -4.7910    67.9010 ha         1 CM9       0.135500
     50 HA         -14.8600    -3.7450    63.5870 h4         1 CM9       0.018100
     51 HB         -16.5170    -6.4830    66.1580 h4         1 CM9       0.018100
@<TRIPOS>BOND
     1     1     2 2   
     2     2     3 1   
     3     2    10 1   
     4     3     4 1   
     5     3     9 1   
     6     3    25 1   
     7     4     5 1   
     8     4    27 1   
     9     4    28 1   
    10     5     6 1   
    11     5    31 1   
    12     5    32 1   
    13     6     7 1   
    14     6     8 1   
    15     6    33 1   
    16     7    34 1   
    17     7    35 1   
    18     7    36 1   
    19     8     9 1   
    20     8    37 1   
    21     8    38 1   
    22     9    29 1   
    23     9    30 1   
    24    10    11 1   
    25    10    26 1   
    26    11    12 1   
    27    11    16 1   
    28    11    39 1   
    29    12    13 1   
    30    12    40 1   
    31    12    41 1   
    32    13    14 1   
    33    13    42 1   
    34    13    43 1   
    35    14    15 1   
    36    15    44 1   
    37    15    45 1   
    38    15    46 1   
    39    16    17 2   
    40    16    18 1   
    41    18    19 1   
    42    18    47 1   
    43    19    20 ar  
    44    19    24 ar  
    45    20    21 ar  
    46    20    48 1   
    47    21    22 ar  
    48    21    50 1   
    49    22    23 ar  
    50    23    24 ar  
    51    23    51 1   
    52    24    49 1   
@<TRIPOS>SUBSTRUCTURE
     1 CM9         1 TEMP              0 ****  ****    0 ROOT
