@<TRIPOS>MOLECULE
CM9
   51    52     1     0     0
SMALL
No Charge or Current Charge


@<TRIPOS>ATOM
      1 O1         -18.5950     0.9710    68.8310 o          1 CM9      -0.577100
      2 C8         -18.4240    -0.0150    69.5310 c          1 CM9       0.596100
      3 C9         -19.5690    -0.6440    70.3480 c6         1 CM9      -0.146700
      4 C10        -19.3100    -0.4950    71.8870 c6         1 CM9      -0.067400
      5 C11        -20.1030    -1.5070    72.7670 c6         1 CM9      -0.071400
      6 C12        -21.3810    -2.0150    72.0530 c6         1 CM9      -0.063700
      7 C13        -22.2550    -2.9050    72.9750 c3         1 CM9      -0.087100
      8 C14        -21.0120    -2.7480    70.7270 c6         1 CM9      -0.071400
      9 C15        -19.7510    -2.1590    70.0330 c6         1 CM9      -0.067400
     10 N3         -17.2110    -0.6710    69.5870 ns         1 CM9      -0.531900
     11 C7         -15.9640    -0.2210    68.9110 c3         1 CM9       0.029700
     12 C16        -14.8770     0.1010    69.9680 c3         1 CM9      -0.087400
     13 C17        -15.2950     1.2090    70.9600 c3         1 CM9       0.051600
     14 S          -13.9290     1.5820    72.1520 ss         1 CM9      -0.413000
     15 C18        -14.0900     0.1440    73.3070 c3         1 CM9       0.034900
     16 C6         -15.4680    -1.2380    67.8340 c          1 CM9       0.606100
     17 O2         -14.4230    -1.0550    67.2180 o          1 CM9      -0.558100
     18 N2         -16.2850    -2.3480    67.6450 ns         1 CM9      -0.139000
     19 C5         -16.1810    -3.4820    66.7970 ca         1 CM9       0.022000
     20 C1         -15.1010    -3.7290    65.9270 ca         1 CM9      -0.209000
     21 C2         -15.1040    -4.8890    65.1350 ca         1 CM9       0.357400
     22 N1         -16.1050    -5.7970    65.1600 nb         1 CM9      -0.682000
     23 C3         -17.1420    -5.5640    65.9950 ca         1 CM9       0.357400
     24 C4         -17.2160    -4.4310    66.8200 ca         1 CM9      -0.209000
     25 H9         -20.4870    -0.1020    70.0800 hc         1 CM9       0.087700
     26 H3         -17.1630    -1.4630    70.2190 hn         1 CM9       0.319500
     27 H101       -18.2400    -0.6060    72.1140 hc         1 CM9       0.042450
     28 H102       -19.5690     0.5300    72.1870 hc         1 CM9       0.042450
     29 H151       -19.8240    -2.3160    68.9480 hc         1 CM9       0.042450
     30 H152       -18.8660    -2.7210    70.3640 hc         1 CM9       0.042450
     31 H111       -19.4600    -2.3650    73.0090 hc         1 CM9       0.043200
     32 H112       -20.3590    -1.0380    73.7260 hc         1 CM9       0.043200
     33 H12        -22.0010    -1.1410    71.8060 hc         1 CM9       0.050700
     34 H131       -21.7120    -3.8020    73.2970 hc         1 CM9       0.035367
     35 H132       -22.5620    -2.3600    73.8760 hc         1 CM9       0.035367
     36 H133       -23.1660    -3.2320    72.4600 hc         1 CM9       0.035367
     37 H141       -20.8420    -3.8170    70.9160 hc         1 CM9       0.043200
     38 H142       -21.8690    -2.6950    70.0420 hc         1 CM9       0.043200
     39 H7         -16.1780     0.7000    68.3530 h1         1 CM9       0.101700
     40 H161       -14.6280    -0.8130    70.5190 hc         1 CM9       0.066200
     41 H162       -13.9610     0.4230    69.4560 hc         1 CM9       0.066200
     42 H171       -15.5340     2.1250    70.4020 h1         1 CM9       0.073200
     43 H172       -16.1900     0.9090    71.5200 h1         1 CM9       0.073200
     44 H181       -13.8920    -0.7940    72.7730 h1         1 CM9       0.059700
     45 H182       -13.3660     0.2470    74.1260 h1         1 CM9       0.059700
     46 H183       -15.1030     0.1140    73.7270 h1         1 CM9       0.059700
     47 H2         -17.1200    -2.3420    68.2160 hn         1 CM9       0.154000
     48 H1         -14.2570    -3.0540    65.8460 ha         1 CM9       0.135500
     49 H4         -18.0780    -4.3010    67.4690 ha         1 CM9       0.135500
     50 HA         -14.2780    -5.0970    64.4560 h4         1 CM9       0.018100
     51 HB         -17.9380    -6.3080    66.0010 h4         1 CM9       0.018100
@<TRIPOS>BOND
     1     1     2 2   
     2     2     3 1   
     3     2    10 1   
     4     3     4 1   
     5     3     9 1   
     6     3    25 1   
     7     4     5 1   
     8     4    27 1   
     9     4    28 1   
    10     5     6 1   
    11     5    31 1   
    12     5    32 1   
    13     6     7 1   
    14     6     8 1   
    15     6    33 1   
    16     7    34 1   
    17     7    35 1   
    18     7    36 1   
    19     8     9 1   
    20     8    37 1   
    21     8    38 1   
    22     9    29 1   
    23     9    30 1   
    24    10    11 1   
    25    10    26 1   
    26    11    12 1   
    27    11    16 1   
    28    11    39 1   
    29    12    13 1   
    30    12    40 1   
    31    12    41 1   
    32    13    14 1   
    33    13    42 1   
    34    13    43 1   
    35    14    15 1   
    36    15    44 1   
    37    15    45 1   
    38    15    46 1   
    39    16    17 2   
    40    16    18 1   
    41    18    19 1   
    42    18    47 1   
    43    19    20 ar  
    44    19    24 ar  
    45    20    21 ar  
    46    20    48 1   
    47    21    22 ar  
    48    21    50 1   
    49    22    23 ar  
    50    23    24 ar  
    51    23    51 1   
    52    24    49 1   
@<TRIPOS>SUBSTRUCTURE
     1 CM9         1 TEMP              0 ****  ****    0 ROOT
