@<TRIPOS>MOLECULE
CMA
   33    32     1     0     0
SMALL
abcg2


@<TRIPOS>ATOM
      1 CA          -6.2180    89.7030    61.5010 c3         1 CMA       0.061500
      2 CB          -6.5670    88.2610    61.9180 c3         1 CMA      -0.092400
      3 O           -8.2850    90.8380    61.7850 o          1 CMA      -0.748500
      4 C           -7.4610    90.4280    60.9380 c          1 CMA       0.719000
      5 C1          -4.4460    90.0640    63.2150 c3         1 CMA       0.207800
      6 C2          -4.6370    89.2600    64.4980 c3         1 CMA      -0.240400
      7 C3          -5.3260    90.0020    65.6630 c          1 CMA       0.716000
      8 O1          -5.5660    89.3170    66.6780 o          1 CMA      -0.749500
      9 O2          -5.5790    91.2160    65.5120 o          1 CMA      -0.749500
     10 N           -5.6460    90.5330    62.5460 n7         1 CMA      -0.877400
     11 CG          -7.1890    87.4130    60.8020 c3         1 CMA      -0.068400
     12 CD          -8.7100    87.3750    60.8510 c3         1 CMA       0.202800
     13 NE          -9.2250    86.6410    59.7110 nu         1 CMA      -0.880400
     14 CZ         -10.5580    86.4000    59.4990 c2         1 CMA       0.809100
     15 NH1        -11.4150    87.3060    60.0790 nv         1 CMA      -1.068200
     16 NH2        -10.9060    85.3680    58.8170 n2         1 CMA      -0.966100
     17 OXT         -7.5570    90.5310    59.6990 o          1 CMA      -0.748500
     18 HA          -5.4760    89.6230    60.6970 h1         1 CMA       0.019700
     19 HB1         -5.6490    87.7730    62.2530 hc         1 CMA       0.033200
     20 HB2         -7.2290    88.2840    62.7910 hc         1 CMA       0.033200
     21 H11         -3.8120    90.9270    63.4520 h1         1 CMA       0.000700
     22 H12         -3.8680    89.4700    62.5000 h1         1 CMA       0.000700
     23 H21         -5.1910    88.3390    64.2990 hc         1 CMA       0.008700
     24 H22         -3.6520    88.9290    64.8510 hc         1 CMA       0.008700
     25 H           -6.3560    90.7750    63.2230 hn         1 CMA       0.467000
     26 HG1         -6.8710    87.7880    59.8250 hc         1 CMA       0.026700
     27 HG2         -6.8200    86.3850    60.8690 hc         1 CMA       0.026700
     28 HD1         -9.0230    86.9270    61.8030 h1         1 CMA       0.059200
     29 HD2         -9.0970    88.3930    60.8430 h1         1 CMA       0.059200
     30 HE          -8.6580    85.8560    59.4270 hn         1 CMA       0.466000
     31 HH11       -12.3630    87.2830    59.7360 hn         1 CMA       0.458500
     32 HH12       -11.0830    88.2490    60.2040 hn         1 CMA       0.458500
     33 HH21       -11.9080    85.3560    58.6670 hn         1 CMA       0.350400
@<TRIPOS>BOND
     1     1     2 1   
     2     1     4 1   
     3     1    10 1   
     4     1    18 1   
     5     2    11 1   
     6     2    19 1   
     7     2    20 1   
     8     3     4 1   
     9     4    17 1   
    10     5     6 1   
    11     5    10 1   
    12     5    21 1   
    13     5    22 1   
    14     6     7 1   
    15     6    23 1   
    16     6    24 1   
    17     7     8 1   
    18     7     9 1   
    19    10    25 1   
    20    11    12 1   
    21    11    26 1   
    22    11    27 1   
    23    12    13 1   
    24    12    28 1   
    25    12    29 1   
    26    13    14 1   
    27    13    30 1   
    28    14    15 1   
    29    14    16 2   
    30    15    31 1   
    31    15    32 1   
    32    16    33 1   
@<TRIPOS>SUBSTRUCTURE
     1 CMA         1 TEMP              0 ****  ****    0 ROOT
