@<TRIPOS>MOLECULE
CMA
   33    32     1     0     0
SMALL
No Charge or Current Charge


@<TRIPOS>ATOM
      1 CA          -6.6730    89.8250    61.8440 c3         1 CMA       0.061500
      2 CB          -6.7960    88.2880    62.1020 c3         1 CMA      -0.092400
      3 O           -8.8950    90.4670    62.5830 o          1 CMA      -0.748500
      4 C           -8.0880    90.5200    61.6620 c          1 CMA       0.719000
      5 C1          -4.4250    90.0980    63.0610 c3         1 CMA       0.207800
      6 C2          -4.2250    89.2800    64.3490 c3         1 CMA      -0.240400
      7 C3          -4.4960    90.1650    65.5710 c          1 CMA       0.716000
      8 O1          -5.6420    90.2250    65.9900 o          1 CMA      -0.749500
      9 O2          -3.5660    90.7970    66.0480 o          1 CMA      -0.749500
     10 N           -5.8350    90.4890    62.9120 n7         1 CMA      -0.877400
     11 CG          -7.4360    87.4510    60.9620 c3         1 CMA      -0.068400
     12 CD          -8.9760    87.5370    60.8470 c3         1 CMA       0.202800
     13 NE          -9.4720    86.5410    59.8840 nu         1 CMA      -0.880400
     14 CZ         -10.7500    86.4150    59.6330 c2         1 CMA       0.809100
     15 NH1        -10.8990    87.1710    58.5980 nv         1 CMA      -1.068200
     16 NH2        -11.1740    85.2540    59.6380 n2         1 CMA      -0.966100
     17 OXT         -8.3080    91.1340    60.6240 o          1 CMA      -0.748500
     18 HA          -6.1500    89.9430    60.8850 h1         1 CMA       0.019700
     19 HB1         -5.7920    87.8750    62.2470 hc         1 CMA       0.033200
     20 HB2         -7.3400    88.1090    63.0370 hc         1 CMA       0.033200
     21 H11         -3.7980    90.9980    63.1200 h1         1 CMA       0.000700
     22 H12         -4.0850    89.5190    62.1920 h1         1 CMA       0.000700
     23 H21         -4.9300    88.4410    64.3120 hc         1 CMA       0.008700
     24 H22         -3.1740    88.9630    64.3310 hc         1 CMA       0.008700
     25 H           -6.2890    90.3700    63.8300 hn         1 CMA       0.467000
     26 HG1         -6.9800    87.7310    60.0040 hc         1 CMA       0.026700
     27 HG2         -7.1670    86.4010    61.1370 hc         1 CMA       0.026700
     28 HD1         -9.4220    87.3550    61.8340 h1         1 CMA       0.059200
     29 HD2         -9.2710    88.5430    60.5230 h1         1 CMA       0.059200
     30 HE          -9.1090    85.6090    60.0360 hn         1 CMA       0.466000
     31 HH11       -11.1310    86.6090    57.7950 hn         1 CMA       0.458500
     32 HH12       -10.0190    87.6480    58.4840 hn         1 CMA       0.458500
     33 HH21       -12.0330    85.2440    59.0780 hn         1 CMA       0.350400
@<TRIPOS>BOND
     1     1     2 1   
     2     1     4 1   
     3     1    10 1   
     4     1    18 1   
     5     2    11 1   
     6     2    19 1   
     7     2    20 1   
     8     3     4 1   
     9     4    17 1   
    10     5     6 1   
    11     5    10 1   
    12     5    21 1   
    13     5    22 1   
    14     6     7 1   
    15     6    23 1   
    16     6    24 1   
    17     7     8 1   
    18     7     9 1   
    19    10    25 1   
    20    11    12 1   
    21    11    26 1   
    22    11    27 1   
    23    12    13 1   
    24    12    28 1   
    25    12    29 1   
    26    13    14 1   
    27    13    30 1   
    28    14    15 1   
    29    14    16 2   
    30    15    31 1   
    31    15    32 1   
    32    16    33 1   
@<TRIPOS>SUBSTRUCTURE
     1 CMA         1 TEMP              0 ****  ****    0 ROOT
