@<TRIPOS>MOLECULE
CMB
   54    57     1     0     0
SMALL
No Charge or Current Charge


@<TRIPOS>ATOM
      1 C1          -4.1950     3.4780    -1.1550 ca         1 CMB      -0.084000
      2 C2          -3.8290     2.4570    -0.2520 ca         1 CMB      -0.125000
      3 C3          -2.4650     2.2920     0.0380 ca         1 CMB      -0.030200
      4 C4          -1.5180     3.0910    -0.5420 ca         1 CMB      -0.110800
      5 C5          -1.8390     4.1160    -1.4440 ca         1 CMB      -0.022300
      6 C6          -3.2070     4.3030    -1.7460 ca         1 CMB      -0.141000
      7 N7          -1.8340     1.3770     0.8770 na         1 CMB      -0.055700
      8 C8          -0.4280     1.5560     0.8460 cc         1 CMB      -0.140300
      9 C9          -0.2520     2.6280    -0.0330 cd         1 CMB      -0.204200
     10 C10         -0.7610     4.9860    -2.0720 c3         1 CMB      -0.045800
     11 C11          0.6540     0.8050     1.5450 c          1 CMB       0.628300
     12 N12          1.9270     1.2450     1.2600 ns         1 CMB      -0.504900
     13 C13          3.1520     0.6260     1.7640 c3         1 CMB       0.155300
     14 C14          3.6220    -0.4920     0.8440 ca         1 CMB      -0.079300
     15 C17         -2.6070     0.3720     1.6360 c3         1 CMB       0.124900
     16 C18         -3.0150    -0.8480     0.8120 ca         1 CMB      -0.119300
     17 C21         -2.0840    -1.5000    -0.0190 ca         1 CMB      -0.059000
     18 C22         -2.4700    -2.6270    -0.7600 ca         1 CMB      -0.121000
     19 C23         -3.7870    -3.1090    -0.6840 ca         1 CMB      -0.086000
     20 C24         -4.7460    -2.4610     0.1320 ca         1 CMB      -0.149900
     21 C25         -4.3340    -1.3390     0.8900 ca         1 CMB      -0.058000
     22 C26          3.1640    -1.8110     1.0350 ca         1 CMB      -0.088500
     23 C27          3.5860    -2.8390     0.1750 ca         1 CMB       0.126500
     24 C28          4.4690    -2.5600    -0.8800 ca         1 CMB      -0.094000
     25 C29          4.9280    -1.2470    -1.0740 ca         1 CMB       0.126500
     26 C30          4.5060    -0.2160    -0.2180 ca         1 CMB      -0.088500
     27 C31         -6.1490    -2.9810     0.2530 ce         1 CMB       0.662800
     28 N32         -6.9310    -2.6630     1.2000 n2         1 CMB      -0.832100
     29 Cl1          3.0030    -4.4800     0.4200 cl         1 CMB      -0.194000
     30 Cl2          6.0310    -0.8930    -2.3970 cl         1 CMB      -0.194000
     31 O45          0.4550    -0.1320     2.3040 o          1 CMB      -0.593100
     32 N53         -6.6370    -3.7420    -0.7490 nv         1 CMB      -1.076200
     33 HC1         -5.2440     3.6320    -1.4000 ha         1 CMB       0.111000
     34 HC6         -3.5090     5.0840    -2.4400 ha         1 CMB       0.110000
     35 HC9          0.7040     3.0600    -0.3170 ha         1 CMB       0.201000
     36 H101        -0.0620     4.3780    -2.6590 hc         1 CMB       0.042367
     37 H102        -1.1880     5.7420    -2.7410 hc         1 CMB       0.042367
     38 H103        -0.1850     5.5110    -1.3010 hc         1 CMB       0.042367
     39 H12          2.0080     2.0240     0.6230 hn         1 CMB       0.327500
     40 H131         3.9310     1.3960     1.8380 h1         1 CMB       0.059200
     41 H132         2.9800     0.2330     2.7750 h1         1 CMB       0.059200
     42 H171        -2.0180     0.0400     2.4980 h1         1 CMB       0.074200
     43 H172        -3.5000     0.8620     2.0430 h1         1 CMB       0.074200
     44 H21         -1.0590    -1.1430    -0.0860 ha         1 CMB       0.134000
     45 H22         -1.7430    -3.1340    -1.3910 ha         1 CMB       0.118000
     46 H23         -4.0490    -3.9980    -1.2530 ha         1 CMB       0.117000
     47 H251        -5.0490    -0.8370     1.5390 ha         1 CMB       0.132000
     48 H26          2.4770    -2.0390     1.8460 ha         1 CMB       0.133000
     49 H28          4.7940    -3.3550    -1.5430 ha         1 CMB       0.145000
     50 H30          4.8660     0.7970    -0.3830 ha         1 CMB       0.133000
     51 H32         -7.7380    -3.2960     1.1680 hn         1 CMB       0.370400
     52 H531        -6.0920    -3.7170    -1.6030 hn         1 CMB       0.461000
     53 H532        -7.6410    -3.7180    -0.8800 hn         1 CMB       0.461000
     54 HC2         -4.5880     1.8210     0.1960 ha         1 CMB       0.123000
@<TRIPOS>BOND
     1     1     2 ar  
     2     1     6 ar  
     3     1    33 1   
     4     2     3 ar  
     5     2    54 1   
     6     3     4 ar  
     7     3     7 1   
     8     4     5 ar  
     9     4     9 1   
    10     5     6 ar  
    11     5    10 1   
    12     6    34 1   
    13     7     8 1   
    14     7    15 1   
    15     8     9 2   
    16     8    11 1   
    17     9    35 1   
    18    10    36 1   
    19    10    37 1   
    20    10    38 1   
    21    11    12 1   
    22    11    31 2   
    23    12    13 1   
    24    12    39 1   
    25    13    14 1   
    26    13    40 1   
    27    13    41 1   
    28    14    22 ar  
    29    14    26 ar  
    30    15    16 1   
    31    15    42 1   
    32    15    43 1   
    33    16    17 ar  
    34    16    21 ar  
    35    17    18 ar  
    36    17    44 1   
    37    18    19 ar  
    38    18    45 1   
    39    19    20 ar  
    40    19    46 1   
    41    20    21 ar  
    42    20    27 1   
    43    21    47 1   
    44    22    23 ar  
    45    22    48 1   
    46    23    24 ar  
    47    23    29 1   
    48    24    25 ar  
    49    24    49 1   
    50    25    26 ar  
    51    25    30 1   
    52    26    50 1   
    53    27    28 2   
    54    27    32 1   
    55    28    51 1   
    56    32    52 1   
    57    32    53 1   
@<TRIPOS>SUBSTRUCTURE
     1 CMB         1 TEMP              0 ****  ****    0 ROOT
