@<TRIPOS>MOLECULE
CMB
   54    57     1     0     0
SMALL
abcg2


@<TRIPOS>ATOM
      1 C1          -4.0540     3.2830    -1.1850 ca         1 CMB      -0.084000
      2 C2          -3.6930     2.2360    -0.3640 ca         1 CMB      -0.125000
      3 C3          -2.3260     2.0500    -0.1420 ca         1 CMB      -0.030200
      4 C4          -1.3560     2.8970    -0.7130 ca         1 CMB      -0.110800
      5 C5          -1.7410     3.9580    -1.5520 ca         1 CMB      -0.022300
      6 C6          -3.0940     4.1280    -1.7710 ca         1 CMB      -0.141000
      7 N7          -1.6870     1.1130     0.6210 na         1 CMB      -0.055700
      8 C8          -0.3330     1.3510     0.5540 cc         1 CMB      -0.140300
      9 C9          -0.0930     2.4330    -0.2510 cd         1 CMB      -0.204200
     10 C10         -0.7120     4.8570    -2.1650 c3         1 CMB      -0.045800
     11 C11          0.6780     0.4800     1.1910 c          1 CMB       0.628300
     12 N12          1.8050     1.1130     1.5610 ns         1 CMB      -0.504900
     13 C13          2.9210     0.3940     2.1200 c3         1 CMB       0.155300
     14 C14          3.6110    -0.5080     1.1260 ca         1 CMB      -0.079300
     15 C17         -2.3960     0.1360     1.4220 c3         1 CMB       0.124900
     16 C18         -3.0430    -0.9440     0.5920 ca         1 CMB      -0.119300
     17 C21         -2.3300    -1.6130    -0.4010 ca         1 CMB      -0.059000
     18 C22         -2.9400    -2.6140    -1.1380 ca         1 CMB      -0.121000
     19 C23         -4.2640    -2.9580    -0.8980 ca         1 CMB      -0.086000
     20 C24         -4.9900    -2.2970     0.0880 ca         1 CMB      -0.149900
     21 C25         -4.3640    -1.2950     0.8280 ca         1 CMB      -0.058000
     22 C26          4.0240    -1.7750     1.5160 ca         1 CMB      -0.088500
     23 C27          4.6960    -2.5820     0.6130 ca         1 CMB       0.126500
     24 C28          4.9650    -2.1650    -0.6800 ca         1 CMB      -0.094000
     25 C29          4.5390    -0.8970    -1.0470 ca         1 CMB       0.126500
     26 C30          3.8710    -0.0650    -0.1660 ca         1 CMB      -0.088500
     27 C31         -6.4120    -2.6310     0.3800 ce         1 CMB       0.662800
     28 N32         -6.8690    -2.3860     1.5480 n2         1 CMB      -0.832100
     29 CL1          5.2050    -4.1620     1.1040 cl         1 CMB      -0.194000
     30 CL2          4.8600    -0.3440    -2.6560 cl         1 CMB      -0.194000
     31 O45          0.5200    -0.7240     1.3420 o          1 CMB      -0.593100
     32 N53         -7.0940    -3.2240    -0.6430 nv         1 CMB      -1.076200
     33 HC1         -5.1020     3.4610    -1.3870 ha         1 CMB       0.111000
     34 HC6         -3.4300     4.9390    -2.4070 ha         1 CMB       0.110000
     35 HC9          0.8770     2.8240    -0.5160 ha         1 CMB       0.201000
     36 H101        -0.0110     4.2950    -2.7860 hc         1 CMB       0.042367
     37 H102        -1.1740     5.6210    -2.7880 hc         1 CMB       0.042367
     38 H103        -0.1200     5.3630    -1.3990 hc         1 CMB       0.042367
     39 H12          1.8470     2.1180     1.5250 hn         1 CMB       0.327500
     40 H131         3.6290     1.1390     2.4850 h1         1 CMB       0.059200
     41 H132         2.6050    -0.1900     2.9870 h1         1 CMB       0.059200
     42 H171        -1.7030    -0.3050     2.1330 h1         1 CMB       0.074200
     43 H172        -3.1550     0.6560     2.0110 h1         1 CMB       0.074200
     44 H21         -1.2980    -1.3540    -0.5950 ha         1 CMB       0.134000
     45 H22         -2.3800    -3.1370    -1.9010 ha         1 CMB       0.118000
     46 H23         -4.7130    -3.7570    -1.4760 ha         1 CMB       0.117000
     47 H251        -4.9320    -0.7770     1.5910 ha         1 CMB       0.132000
     48 H26          3.8190    -2.1320     2.5180 ha         1 CMB       0.133000
     49 H28          5.4860    -2.8040    -1.3780 ha         1 CMB       0.145000
     50 H30          3.5520     0.9190    -0.4830 ha         1 CMB       0.133000
     51 H32         -7.8550    -2.6260     1.6160 hn         1 CMB       0.370400
     52 H531        -6.8080    -3.0280    -1.5880 hn         1 CMB       0.461000
     53 H532        -8.0910    -3.3250    -0.5380 hn         1 CMB       0.461000
     54 HC2         -4.4420     1.5910     0.0760 ha         1 CMB       0.123000
@<TRIPOS>BOND
     1     1     2 ar  
     2     1     6 ar  
     3     1    33 1   
     4     2     3 ar  
     5     2    54 1   
     6     3     4 ar  
     7     3     7 1   
     8     4     5 ar  
     9     4     9 1   
    10     5     6 ar  
    11     5    10 1   
    12     6    34 1   
    13     7     8 1   
    14     7    15 1   
    15     8     9 2   
    16     8    11 1   
    17     9    35 1   
    18    10    36 1   
    19    10    37 1   
    20    10    38 1   
    21    11    12 1   
    22    11    31 2   
    23    12    13 1   
    24    12    39 1   
    25    13    14 1   
    26    13    40 1   
    27    13    41 1   
    28    14    22 ar  
    29    14    26 ar  
    30    15    16 1   
    31    15    42 1   
    32    15    43 1   
    33    16    17 ar  
    34    16    21 ar  
    35    17    18 ar  
    36    17    44 1   
    37    18    19 ar  
    38    18    45 1   
    39    19    20 ar  
    40    19    46 1   
    41    20    21 ar  
    42    20    27 1   
    43    21    47 1   
    44    22    23 ar  
    45    22    48 1   
    46    23    24 ar  
    47    23    29 1   
    48    24    25 ar  
    49    24    49 1   
    50    25    26 ar  
    51    25    30 1   
    52    26    50 1   
    53    27    28 2   
    54    27    32 1   
    55    28    51 1   
    56    32    52 1   
    57    32    53 1   
@<TRIPOS>SUBSTRUCTURE
     1 CMB         1 TEMP              0 ****  ****    0 ROOT
