@<TRIPOS>MOLECULE
CME
   21    20     1     0     0
SMALL
bcc


@<TRIPOS>ATOM
      1 N           12.8670    20.5600    16.1930 n8         1 CME      -0.874800
      2 CA          14.0060    21.2520    15.6260 c3         1 CME       0.020500
      3 CB          13.6810    22.1360    14.4140 c3         1 CME      -0.001300
      4 SG          12.6380    23.5640    14.9100 ss         1 CME      -0.125100
      5 SD          11.6730    24.0460    13.1630 ss         1 CME      -0.267100
      6 CE          10.0720    23.1890    13.3210 c3         1 CME       0.006700
      7 CZ          10.1600    21.6890    13.4660 c3         1 CME       0.134400
      8 OH          10.8320    21.1400    12.3590 oh         1 CME      -0.588800
      9 C           14.7270    22.1170    16.6890 c          1 CME       0.936600
     10 O           14.0100    22.5880    17.5940 o          1 CME      -0.820800
     11 OXT         15.9430    22.3120    16.5080 o          1 CME      -0.820800
     12 H           12.2790    21.2290    16.6740 hn         1 CME       0.322800
     13 H2          12.3050    20.1460    15.4590 hn         1 CME       0.322800
     14 HA          14.7140    20.5040    15.2540 h1         1 CME       0.055700
     15 HB2         14.5960    22.5160    13.9600 h1         1 CME       0.057700
     16 HB3         13.1310    21.5720    13.6600 h1         1 CME       0.057700
     17 HE2          9.5280    23.6040    14.1690 h1         1 CME       0.067200
     18 HE3          9.5290    23.4650    12.4130 h1         1 CME       0.067200
     19 HZ2         10.6620    21.4490    14.4110 h1         1 CME       0.024700
     20 HZ3          9.1330    21.3090    13.5500 h1         1 CME       0.024700
     21 HH          10.9080    20.1920    12.4980 ho         1 CME       0.398000
@<TRIPOS>BOND
     1     1     2 1   
     2     1    12 1   
     3     1    13 1   
     4     2     3 1   
     5     2     9 1   
     6     2    14 1   
     7     3     4 1   
     8     3    15 1   
     9     3    16 1   
    10     4     5 1   
    11     5     6 1   
    12     6     7 1   
    13     6    17 1   
    14     6    18 1   
    15     7     8 1   
    16     7    19 1   
    17     7    20 1   
    18     8    21 1   
    19     9    10 1   
    20     9    11 1   
@<TRIPOS>SUBSTRUCTURE
     1 CME         1 TEMP              0 ****  ****    0 ROOT
