@<TRIPOS>MOLECULE
CME
   21    20     1     0     0
SMALL
No Charge or Current Charge


@<TRIPOS>ATOM
      1 N           13.0870    20.5780    16.7710 n8         1 CME      -0.874800
      2 CA          14.1170    21.2690    15.8980 c3         1 CME       0.020500
      3 CB          13.4330    21.9610    14.6930 c3         1 CME      -0.001300
      4 SG          12.3090    23.3340    15.2120 ss         1 CME      -0.125100
      5 SD          11.5690    24.0870    13.4020 ss         1 CME      -0.267100
      6 CE           9.9300    23.2460    13.1870 c3         1 CME       0.006700
      7 CZ          10.0520    21.7170    13.0000 c3         1 CME       0.134400
      8 OH          10.7550    21.4090    11.7890 oh         1 CME      -0.588800
      9 C           15.1540    22.2530    16.5920 c          1 CME       0.936600
     10 O           14.8470    22.8090    17.6450 o          1 CME      -0.820800
     11 OXT         16.2820    22.3360    16.1160 o          1 CME      -0.820800
     12 H           12.5400    21.2950    17.2590 hn         1 CME       0.322800
     13 H2          12.4080    20.0900    16.1790 hn         1 CME       0.322800
     14 HA          14.7340    20.4650    15.4740 h1         1 CME       0.055700
     15 HB2         14.2000    22.3740    14.0260 h1         1 CME       0.057700
     16 HB3         12.8540    21.2250    14.1220 h1         1 CME       0.057700
     17 HE2          9.3140    23.4530    14.0710 h1         1 CME       0.067200
     18 HE3          9.4230    23.6770    12.3140 h1         1 CME       0.067200
     19 HZ2         10.5650    21.2810    13.8660 h1         1 CME       0.024700
     20 HZ3          9.0420    21.2880    12.9640 h1         1 CME       0.024700
     21 HH          10.7810    20.4320    11.7110 ho         1 CME       0.398000
@<TRIPOS>BOND
     1     1     2 1   
     2     1    12 1   
     3     1    13 1   
     4     2     3 1   
     5     2     9 1   
     6     2    14 1   
     7     3     4 1   
     8     3    15 1   
     9     3    16 1   
    10     4     5 1   
    11     5     6 1   
    12     6     7 1   
    13     6    17 1   
    14     6    18 1   
    15     7     8 1   
    16     7    19 1   
    17     7    20 1   
    18     8    21 1   
    19     9    10 1   
    20     9    11 1   
@<TRIPOS>SUBSTRUCTURE
     1 CME         1 TEMP              0 ****  ****    0 ROOT
