@<TRIPOS>MOLECULE
CMF
   62    66     1     0     0
SMALL
No Charge or Current Charge


@<TRIPOS>ATOM
      1 C24          0.8090    -1.4290    -4.9790 c6         1 CMF       0.062000
      2 C26          0.5270    -1.0660    -6.4590 c6         1 CMF       0.131100
      3 O4           1.0570     0.2350    -6.7680 os         1 CMF      -0.452000
      4 C27          0.4350     1.2720    -5.9900 c6         1 CMF       0.131100
      5 C25          0.7020     1.0600    -4.4770 c6         1 CMF       0.062000
      6 N2           0.4980    -0.3460    -3.9890 n          1 CMF      -0.416800
      7 C23          0.5050    -0.6480    -2.6050 c          1 CMF       0.586100
      8 O3           0.6870    -1.7990    -2.2250 o          1 CMF      -0.569100
      9 C22          0.2090     0.4990    -1.6150 c3         1 CMF       0.006600
     10 N1           0.0720     0.0810    -0.2010 na         1 CMF      -0.077700
     11 C1           1.1460     0.0570     0.6710 ca         1 CMF      -0.036200
     12 C6           2.5170     0.0820     0.3600 ca         1 CMF      -0.117000
     13 C5           3.4670     0.0720     1.4150 ca         1 CMF      -0.106600
     14 C8           4.9610     0.1000     1.1180 c          1 CMF       0.710600
     15 O2           5.3260     0.1540    -0.0480 o          1 CMF      -0.721500
     16 O1           5.7460     0.0690     2.0560 o          1 CMF      -0.721500
     17 C4           2.9930     0.0380     2.7550 ca         1 CMF      -0.100000
     18 C3           1.6120     0.0080     3.0360 ca         1 CMF      -0.110000
     19 C2           0.7080     0.0120     1.9620 ca         1 CMF      -0.110800
     20 C7          -0.7360    -0.0240     1.9490 cc         1 CMF      -0.101400
     21 C16         -1.6970    -0.2110     3.1170 c6         1 CMF       0.019500
     22 C17         -1.4010    -1.5320     3.8810 c6         1 CMF      -0.069900
     23 C20         -2.3730    -1.7210     5.0720 c6         1 CMF      -0.073900
     24 C21         -2.3330    -0.5010     6.0270 c6         1 CMF      -0.072400
     25 C19         -2.6310     0.8160     5.2690 c6         1 CMF      -0.073900
     26 C18         -1.6590     1.0100     4.0790 c6         1 CMF      -0.069900
     27 C9          -1.1070     0.0090     0.5910 cd         1 CMF      -0.044300
     28 C10         -2.4710     0.1650     0.0250 ca         1 CMF      -0.015800
     29 C11         -2.8090    -0.4660    -1.1930 ca         1 CMF      -0.100000
     30 C12         -4.0890    -0.3180    -1.7540 ca         1 CMF      -0.122500
     31 C13         -5.0530     0.4710    -1.1090 ca         1 CMF      -0.120000
     32 C14         -4.7310     1.1140     0.0960 ca         1 CMF      -0.122500
     33 C15         -3.4510     0.9630     0.6570 ca         1 CMF      -0.100000
     34 H241         1.8710    -1.6940    -4.8820 h1         1 CMF       0.066200
     35 H242         0.2300    -2.3300    -4.7300 h1         1 CMF       0.066200
     36 H261         0.9870    -1.8120    -7.1220 h1         1 CMF       0.048450
     37 H262        -0.5570    -1.0670    -6.6450 h1         1 CMF       0.048450
     38 H271         0.8280     2.2480    -6.3070 h1         1 CMF       0.048450
     39 H272        -0.6480     1.2650    -6.1830 h1         1 CMF       0.048450
     40 H251         0.0480     1.7500    -3.9270 h1         1 CMF       0.066200
     41 H252         1.7380     1.3560    -4.2620 h1         1 CMF       0.066200
     42 H221        -0.7130     0.9960    -1.9350 h1         1 CMF       0.071200
     43 H222         1.0180     1.2330    -1.6950 h1         1 CMF       0.071200
     44 H6           2.8460     0.1070    -0.6760 ha         1 CMF       0.130000
     45 H4           3.6970     0.0330     3.5840 ha         1 CMF       0.128000
     46 H3           1.2720    -0.0160     4.0660 ha         1 CMF       0.091000
     47 H16         -2.7230    -0.3180     2.7490 hc         1 CMF       0.036700
     48 H171        -1.4910    -2.3840     3.1940 hc         1 CMF       0.046450
     49 H172        -0.3700    -1.5460     4.2540 hc         1 CMF       0.046450
     50 H201        -3.3960    -1.8620     4.6970 hc         1 CMF       0.028950
     51 H202        -2.1140    -2.6340     5.6240 hc         1 CMF       0.028950
     52 H211        -3.0620    -0.6380     6.8370 hc         1 CMF       0.031200
     53 H212        -1.3450    -0.4380     6.5040 hc         1 CMF       0.031200
     54 H191        -3.6670     0.8060     4.9030 hc         1 CMF       0.028950
     55 H192        -2.5510     1.6680     5.9580 hc         1 CMF       0.028950
     56 H181        -0.6430     1.1650     4.4630 hc         1 CMF       0.046450
     57 H182        -1.9220     1.9270     3.5340 hc         1 CMF       0.046450
     58 H11         -2.0890    -1.1060    -1.6940 ha         1 CMF       0.127000
     59 H12         -4.3350    -0.8210    -2.6870 ha         1 CMF       0.104500
     60 H13         -6.0430     0.5880    -1.5430 ha         1 CMF       0.102000
     61 H14         -5.4710     1.7380     0.5930 ha         1 CMF       0.104500
     62 H15         -3.2130     1.5090     1.5650 ha         1 CMF       0.127000
@<TRIPOS>BOND
     1     1     2 1   
     2     1     6 1   
     3     1    34 1   
     4     1    35 1   
     5     2     3 1   
     6     2    36 1   
     7     2    37 1   
     8     3     4 1   
     9     4     5 1   
    10     4    38 1   
    11     4    39 1   
    12     5     6 1   
    13     5    40 1   
    14     5    41 1   
    15     6     7 1   
    16     7     8 2   
    17     7     9 1   
    18     9    10 1   
    19     9    42 1   
    20     9    43 1   
    21    10    11 1   
    22    10    27 1   
    23    11    12 ar  
    24    11    19 ar  
    25    12    13 ar  
    26    12    44 1   
    27    13    14 1   
    28    13    17 ar  
    29    14    15 1   
    30    14    16 1   
    31    17    18 ar  
    32    17    45 1   
    33    18    19 ar  
    34    18    46 1   
    35    19    20 1   
    36    20    21 1   
    37    20    27 2   
    38    21    22 1   
    39    21    26 1   
    40    21    47 1   
    41    22    23 1   
    42    22    48 1   
    43    22    49 1   
    44    23    24 1   
    45    23    50 1   
    46    23    51 1   
    47    24    25 1   
    48    24    52 1   
    49    24    53 1   
    50    25    26 1   
    51    25    54 1   
    52    25    55 1   
    53    26    56 1   
    54    26    57 1   
    55    27    28 1   
    56    28    29 ar  
    57    28    33 ar  
    58    29    30 ar  
    59    29    58 1   
    60    30    31 ar  
    61    30    59 1   
    62    31    32 ar  
    63    31    60 1   
    64    32    33 ar  
    65    32    61 1   
    66    33    62 1   
@<TRIPOS>SUBSTRUCTURE
     1 CMF         1 TEMP              0 ****  ****    0 ROOT
