@<TRIPOS>MOLECULE
CMF
   62    66     1     0     0
SMALL
bcc


@<TRIPOS>ATOM
      1 C24          1.0140    -1.3690    -4.6690 c6         1 CMF       0.062000
      2 C26         -0.1310    -1.3380    -5.6680 c6         1 CMF       0.107900
      3 O4          -0.2090    -0.0960    -6.3320 os         1 CMF      -0.405600
      4 C27         -0.3640     0.9730    -5.4260 c6         1 CMF       0.107900
      5 C25          0.7750     1.0190    -4.4210 c6         1 CMF       0.062000
      6 N2           0.8690    -0.2610    -3.7390 n          1 CMF      -0.483800
      7 C23          0.6750    -0.4720    -2.4250 c          1 CMF       0.653100
      8 O3           0.7040    -1.5800    -1.9140 o          1 CMF      -0.569100
      9 C22          0.4040     0.7640    -1.5650 c3         1 CMF      -0.022700
     10 N1           0.2630     0.4280    -0.1830 na         1 CMF      -0.048400
     11 C1           1.3100     0.2540     0.6790 ca         1 CMF      -0.036200
     12 C6           2.6770     0.3260     0.4350 ca         1 CMF      -0.135000
     13 C5           3.5480     0.1340     1.4950 ca         1 CMF      -0.106600
     14 C8           5.0500     0.2140     1.2670 c          1 CMF       0.921200
     15 O2           5.4300     0.4680     0.1060 o          1 CMF      -0.826800
     16 O1           5.7810     0.0250     2.2600 o          1 CMF      -0.826800
     17 C4           3.0320    -0.1310     2.7780 ca         1 CMF      -0.118000
     18 C3           1.6750    -0.2020     3.0180 ca         1 CMF      -0.128000
     19 C2           0.7780    -0.0070     1.9580 ca         1 CMF      -0.110800
     20 C7          -0.6510     0.0040     1.8340 cc         1 CMF      -0.101400
     21 C16         -1.6610    -0.2310     2.9130 c6         1 CMF       0.019500
     22 C17         -1.5220    -1.6160     3.5600 c6         1 CMF      -0.069900
     23 C20         -2.5780    -1.8320     4.6400 c6         1 CMF      -0.073900
     24 C21         -2.5350    -0.7330     5.6960 c6         1 CMF      -0.072400
     25 C19         -2.6800     0.6450     5.0590 c6         1 CMF      -0.073900
     26 C18         -1.6250     0.8700     3.9800 c6         1 CMF      -0.069900
     27 C9          -0.9180     0.2680     0.5140 cd         1 CMF      -0.044300
     28 C10         -2.2240     0.3940    -0.1480 ca         1 CMF      -0.015800
     29 C11         -2.5900    -0.4520    -1.1970 ca         1 CMF      -0.118000
     30 C12         -3.8260    -0.3190    -1.8120 ca         1 CMF      -0.140500
     31 C13         -4.7200     0.6540    -1.3820 ca         1 CMF      -0.138000
     32 C14         -4.3690     1.4940    -0.3340 ca         1 CMF      -0.140500
     33 C15         -3.1290     1.3680     0.2750 ca         1 CMF      -0.118000
     34 H241         1.9730    -1.2760    -5.1880 h1         1 CMF       0.066200
     35 H242         1.0160    -2.3120    -4.1280 h1         1 CMF       0.066200
     36 H261         0.0180    -2.1060    -6.4280 h1         1 CMF       0.048450
     37 H262        -1.0730    -1.5580    -5.1460 h1         1 CMF       0.048450
     38 H271        -0.3840     1.8950    -6.0080 h1         1 CMF       0.048450
     39 H272        -1.3190     0.8910    -4.8860 h1         1 CMF       0.048450
     40 H251         0.6150     1.8390    -3.7250 h1         1 CMF       0.066200
     41 H252         1.7220     1.2160    -4.9320 h1         1 CMF       0.066200
     42 H221        -0.5080     1.2610    -1.9020 h1         1 CMF       0.071200
     43 H222         1.2070     1.4960    -1.6800 h1         1 CMF       0.071200
     44 H6           3.0710     0.5240    -0.5530 ha         1 CMF       0.148000
     45 H4           3.7250    -0.2800     3.5950 ha         1 CMF       0.146000
     46 H3           1.3140    -0.4010     4.0200 ha         1 CMF       0.109000
     47 H16         -2.6560    -0.1980     2.4510 hc         1 CMF       0.036700
     48 H171        -1.6060    -2.3870     2.7900 hc         1 CMF       0.046450
     49 H172        -0.5260    -1.7280     4.0000 hc         1 CMF       0.046450
     50 H201        -3.5700    -1.8410     4.1730 hc         1 CMF       0.028950
     51 H202        -2.4450    -2.8120     5.1040 hc         1 CMF       0.028950
     52 H211        -3.3230    -0.8900     6.4370 hc         1 CMF       0.031200
     53 H212        -1.5850    -0.7830     6.2390 hc         1 CMF       0.031200
     54 H191        -3.6780     0.7350     4.6150 hc         1 CMF       0.028950
     55 H192        -2.6080     1.4270     5.8190 hc         1 CMF       0.028950
     56 H181        -0.6340     0.8980     4.4460 hc         1 CMF       0.046450
     57 H182        -1.7700     1.8450     3.5060 hc         1 CMF       0.046450
     58 H11         -1.9160    -1.2340    -1.5220 ha         1 CMF       0.145000
     59 H12         -4.0950    -0.9840    -2.6220 ha         1 CMF       0.122500
     60 H13         -5.6860     0.7540    -1.8600 ha         1 CMF       0.120000
     61 H14         -5.0590     2.2540     0.0080 ha         1 CMF       0.122500
     62 H15         -2.8560     2.0370     1.0820 ha         1 CMF       0.145000
@<TRIPOS>BOND
     1     1     2 1   
     2     1     6 1   
     3     1    34 1   
     4     1    35 1   
     5     2     3 1   
     6     2    36 1   
     7     2    37 1   
     8     3     4 1   
     9     4     5 1   
    10     4    38 1   
    11     4    39 1   
    12     5     6 1   
    13     5    40 1   
    14     5    41 1   
    15     6     7 1   
    16     7     8 2   
    17     7     9 1   
    18     9    10 1   
    19     9    42 1   
    20     9    43 1   
    21    10    11 1   
    22    10    27 1   
    23    11    12 ar  
    24    11    19 ar  
    25    12    13 ar  
    26    12    44 1   
    27    13    14 1   
    28    13    17 ar  
    29    14    15 1   
    30    14    16 1   
    31    17    18 ar  
    32    17    45 1   
    33    18    19 ar  
    34    18    46 1   
    35    19    20 1   
    36    20    21 1   
    37    20    27 2   
    38    21    22 1   
    39    21    26 1   
    40    21    47 1   
    41    22    23 1   
    42    22    48 1   
    43    22    49 1   
    44    23    24 1   
    45    23    50 1   
    46    23    51 1   
    47    24    25 1   
    48    24    52 1   
    49    24    53 1   
    50    25    26 1   
    51    25    54 1   
    52    25    55 1   
    53    26    56 1   
    54    26    57 1   
    55    27    28 1   
    56    28    29 ar  
    57    28    33 ar  
    58    29    30 ar  
    59    29    58 1   
    60    30    31 ar  
    61    30    59 1   
    62    31    32 ar  
    63    31    60 1   
    64    32    33 ar  
    65    32    61 1   
    66    33    62 1   
@<TRIPOS>SUBSTRUCTURE
     1 CMF         1 TEMP              0 ****  ****    0 ROOT
