@<TRIPOS>MOLECULE
CMG
   35    37     1     0     0
SMALL
abcg2


@<TRIPOS>ATOM
      1 N1           1.4910     0.0110    -1.2920 nb         1 CMG      -0.359000
      2 C2           1.8560     0.1630    -2.5820 ca         1 CMG       0.425900
      3 N3           1.0450     0.2070    -3.6340 nb         1 CMG      -0.280000
      4 C4          -0.2320     0.0760    -3.2970 ca         1 CMG       0.156500
      5 C5          -0.7450    -0.0930    -2.0140 ca         1 CMG      -0.101600
      6 C6           0.2170    -0.1170    -0.9970 ca         1 CMG       0.460300
      7 O6          -0.1780    -0.2680     0.2510 os         1 CMG      -0.432300
      8 C9           0.7990    -0.2510     1.2960 c3         1 CMG       0.171600
      9 N7          -2.1160    -0.1880    -2.0420 nc         1 CMG      -0.511100
     10 C8          -2.4170    -0.0810    -3.3010 cd         1 CMG       0.384700
     11 N9          -1.3230     0.0800    -4.1050 na         1 CMG      -0.420300
     12 N2           3.1870     0.2410    -2.8100 nv         1 CMG      -1.049900
     13 C10          0.0840    -0.4170     2.6230 c6         1 CMG      -0.067700
     14 C11          1.1220    -0.4750     3.7460 c6         1 CMG      -0.071400
     15 C12          0.4670    -0.6280     5.1150 c6         1 CMG      -0.073400
     16 C13         -0.5460     0.4820     5.3720 c6         1 CMG      -0.075400
     17 C14         -1.5850     0.5400     4.2580 c6         1 CMG      -0.073400
     18 C15         -0.9280     0.6990     2.8900 c6         1 CMG      -0.071400
     19 H92          1.5200    -1.0600     1.1430 h1         1 CMG       0.050700
     20 H91          1.3510     0.6940     1.2720 h1         1 CMG       0.050700
     21 H8          -3.4140    -0.1090    -3.7120 h5         1 CMG       0.065800
     22 H9          -1.3320     0.1800    -5.1080 hn         1 CMG       0.367000
     23 H22          3.7850     0.4550    -2.0310 hn         1 CMG       0.490000
     24 H21          3.4920     0.5740    -3.7080 hn         1 CMG       0.490000
     25 H10         -0.4520    -1.3750     2.6100 hc         1 CMG       0.062700
     26 H112         1.8180    -1.3000     3.5700 hc         1 CMG       0.043700
     27 H111         1.7190     0.4440     3.7320 hc         1 CMG       0.043700
     28 H122        -0.0370    -1.6000     5.1660 hc         1 CMG       0.039700
     29 H121         1.2320    -0.6340     5.8940 hc         1 CMG       0.039700
     30 H132        -1.0310     0.3400     6.3400 hc         1 CMG       0.038200
     31 H131        -0.0210     1.4430     5.4240 hc         1 CMG       0.038200
     32 H142        -2.1810    -0.3790     4.2680 hc         1 CMG       0.039700
     33 H141        -2.2840     1.3620     4.4300 hc         1 CMG       0.039700
     34 H152        -0.4110     1.6660     2.8470 hc         1 CMG       0.043700
     35 H151        -1.6940     0.7180     2.1130 hc         1 CMG       0.043700
@<TRIPOS>BOND
     1     1     2 ar  
     2     1     6 ar  
     3     2     3 ar  
     4     2    12 1   
     5     3     4 ar  
     6     4     5 ar  
     7     4    11 1   
     8     5     6 ar  
     9     5     9 1   
    10     6     7 1   
    11     7     8 1   
    12     8    13 1   
    13     8    19 1   
    14     8    20 1   
    15     9    10 2   
    16    10    11 1   
    17    10    21 1   
    18    11    22 1   
    19    12    23 1   
    20    12    24 1   
    21    13    14 1   
    22    13    18 1   
    23    13    25 1   
    24    14    15 1   
    25    14    26 1   
    26    14    27 1   
    27    15    16 1   
    28    15    28 1   
    29    15    29 1   
    30    16    17 1   
    31    16    30 1   
    32    16    31 1   
    33    17    18 1   
    34    17    32 1   
    35    17    33 1   
    36    18    34 1   
    37    18    35 1   
@<TRIPOS>SUBSTRUCTURE
     1 CMG         1 TEMP              0 ****  ****    0 ROOT
