@<TRIPOS>MOLECULE
CMG
   35    37     1     0     0
SMALL
No Charge or Current Charge


@<TRIPOS>ATOM
      1 N1           1.6070     0.0560    -1.3900 nb         1 CMG      -0.359000
      2 C2           1.8910     0.1840    -2.6910 ca         1 CMG       0.425900
      3 N3           1.0390     0.1870    -3.7280 nb         1 CMG      -0.280000
      4 C4          -0.2560     0.0420    -3.4040 ca         1 CMG       0.156500
      5 C5          -0.6770    -0.1000    -2.1060 ca         1 CMG      -0.101600
      6 C6           0.2980    -0.0900    -1.0780 ca         1 CMG       0.460300
      7 O6          -0.1050    -0.2300     0.2350 os         1 CMG      -0.432300
      8 C9           0.8520    -0.2210     1.3110 c3         1 CMG       0.171600
      9 N7          -2.0600    -0.2350    -2.0160 nc         1 CMG      -0.511100
     10 C8          -2.4400    -0.1680    -3.3040 cd         1 CMG       0.384700
     11 N9          -1.3690     0.0010    -4.1920 na         1 CMG      -0.420300
     12 N2           3.1990     0.3300    -2.9900 nv         1 CMG      -1.049900
     13 C10          0.1050    -0.3850     2.6650 c6         1 CMG      -0.067700
     14 C11          1.1110    -0.5380     3.8410 c6         1 CMG      -0.071400
     15 C12          0.3810    -0.7140     5.1960 c6         1 CMG      -0.073400
     16 C13         -0.5950     0.4570     5.4630 c6         1 CMG      -0.075400
     17 C14         -1.6050     0.6160     4.3000 c6         1 CMG      -0.073400
     18 C15         -0.8770     0.7910     2.9430 c6         1 CMG      -0.071400
     19 H92          1.5650    -1.0480     1.1950 h1         1 CMG       0.050700
     20 H91          1.4160     0.7220     1.3240 h1         1 CMG       0.050700
     21 H8          -3.4610    -0.2340    -3.6650 h5         1 CMG       0.065800
     22 H9          -1.4210     0.0760    -5.1990 hn         1 CMG       0.367000
     23 H22          3.8390     0.5600    -2.2340 hn         1 CMG       0.490000
     24 H21          3.4500     0.6580    -3.9190 hn         1 CMG       0.490000
     25 H10         -0.4750    -1.3160     2.5850 hc         1 CMG       0.062700
     26 H112         1.7660    -1.4020     3.6650 hc         1 CMG       0.043700
     27 H111         1.7660     0.3440     3.8890 hc         1 CMG       0.043700
     28 H122        -0.1710    -1.6640     5.1990 hc         1 CMG       0.039700
     29 H121         1.1170    -0.7780     6.0100 hc         1 CMG       0.039700
     30 H132        -1.1350     0.2870     6.4040 hc         1 CMG       0.038200
     31 H131        -0.0290     1.3900     5.5910 hc         1 CMG       0.038200
     32 H142        -2.2610    -0.2650     4.2570 hc         1 CMG       0.039700
     33 H141        -2.2560     1.4810     4.4880 hc         1 CMG       0.039700
     34 H152        -0.3280     1.7430     2.9410 hc         1 CMG       0.043700
     35 H151        -1.6230     0.8610     2.1400 hc         1 CMG       0.043700
@<TRIPOS>BOND
     1     1     2 ar  
     2     1     6 ar  
     3     2     3 ar  
     4     2    12 1   
     5     3     4 ar  
     6     4     5 ar  
     7     4    11 1   
     8     5     6 ar  
     9     5     9 1   
    10     6     7 1   
    11     7     8 1   
    12     8    13 1   
    13     8    19 1   
    14     8    20 1   
    15     9    10 2   
    16    10    11 1   
    17    10    21 1   
    18    11    22 1   
    19    12    23 1   
    20    12    24 1   
    21    13    14 1   
    22    13    18 1   
    23    13    25 1   
    24    14    15 1   
    25    14    26 1   
    26    14    27 1   
    27    15    16 1   
    28    15    28 1   
    29    15    29 1   
    30    16    17 1   
    31    16    30 1   
    32    16    31 1   
    33    17    18 1   
    34    17    32 1   
    35    17    33 1   
    36    18    34 1   
    37    18    35 1   
@<TRIPOS>SUBSTRUCTURE
     1 CMG         1 TEMP              0 ****  ****    0 ROOT
