@<TRIPOS>MOLECULE
CMI
   60    63     1     0     0
SMALL
abcg2


@<TRIPOS>ATOM
      1 C1          -3.5340     0.2110    -3.4420 ca         1 CMI      -0.086000
      2 C2          -2.3650    -0.4690    -3.1700 ca         1 CMI      -0.124000
      3 C3          -2.0590    -0.6830    -1.8240 ca         1 CMI      -0.032200
      4 C4          -2.8850    -0.2090    -0.7860 ca         1 CMI      -0.108800
      5 C5          -4.0780     0.4750    -1.0810 ca         1 CMI      -0.022300
      6 C6          -4.3770     0.6720    -2.4150 ca         1 CMI      -0.141000
      7 N7          -0.9930    -1.3330    -1.2640 na         1 CMI      -0.052700
      8 C8          -1.1050    -1.2460     0.1050 cc         1 CMI      -0.138300
      9 C9          -2.2510    -0.5720     0.4350 cd         1 CMI      -0.205200
     10 C10         -4.9730     0.9530     0.0210 c3         1 CMI      -0.045800
     11 C11         -0.1520    -1.8920     1.0380 c          1 CMI       0.626300
     12 N12          0.0870    -1.1890     2.1530 ns         1 CMI      -0.500900
     13 C13          0.9360    -1.6930     3.2190 c3         1 CMI       0.153300
     14 C14          0.9770    -0.6990     4.3460 ca         1 CMI      -0.113300
     15 C17          0.1580    -1.7640    -2.0320 c3         1 CMI       0.113900
     16 C18          1.0180    -0.6050    -2.4740 ca         1 CMI      -0.121300
     17 C21          1.5340     0.2950    -1.5430 ca         1 CMI      -0.075000
     18 C22          2.3220     1.3540    -1.9600 ca         1 CMI      -0.120000
     19 C23          2.6010     1.5340    -3.3090 ca         1 CMI      -0.086000
     20 C24          2.0920     0.6450    -4.2510 ca         1 CMI      -0.144900
     21 C25          1.3090    -0.4240    -3.8180 ca         1 CMI      -0.051000
     22 C26          1.9900     0.2500     4.4070 ca         1 CMI      -0.099000
     23 C27          2.0250     1.1980     5.4260 ca         1 CMI      -0.074300
     24 C28          1.0130     1.1800     6.3820 ca         1 CMI      -0.102000
     25 C29         -0.0170     0.2440     6.3420 ca         1 CMI      -0.074300
     26 C30         -0.0210    -0.6950     5.3150 ca         1 CMI      -0.099000
     27 C31          2.3640     0.7990    -5.7080 ce         1 CMI       0.660800
     28 N32          2.6690     2.0670    -6.1130 nv         1 CMI      -1.076200
     29 C33          3.1430     2.1960     5.5110 c3         1 CMI      -0.047800
     30 C37         -1.1150     0.2650     7.3670 c3         1 CMI      -0.047800
     31 O45          0.3530    -2.9860     0.8170 o          1 CMI      -0.605100
     32 N53          2.3360    -0.2420    -6.4470 n2         1 CMI      -0.828100
     33 HC1         -3.8130     0.3940    -4.4710 ha         1 CMI       0.110000
     34 HC2         -1.7260    -0.8160    -3.9700 ha         1 CMI       0.120000
     35 HC6         -5.2870     1.1970    -2.6830 ha         1 CMI       0.109000
     36 HC9         -2.6180    -0.4020     1.4350 ha         1 CMI       0.204000
     37 H101        -4.4340     1.5860     0.7290 hc         1 CMI       0.042367
     38 H102        -5.8140     1.5240    -0.3690 hc         1 CMI       0.042367
     39 H103        -5.3760     0.1140     0.5910 hc         1 CMI       0.042367
     40 H12         -0.2720    -0.2510     2.2320 hn         1 CMI       0.327500
     41 H131         1.9440    -1.8730     2.8370 h1         1 CMI       0.059200
     42 H132         0.5490    -2.6520     3.5700 h1         1 CMI       0.059200
     43 H171         0.7340    -2.4650    -1.4320 h1         1 CMI       0.084700
     44 H172        -0.1970    -2.3200    -2.9000 h1         1 CMI       0.084700
     45 H21          1.3220     0.1770    -0.4870 ha         1 CMI       0.116000
     46 H22          2.7270     2.0450    -1.2320 ha         1 CMI       0.115000
     47 H23          3.2290     2.3620    -3.6110 ha         1 CMI       0.118000
     48 H25          0.9130    -1.1140    -4.5530 ha         1 CMI       0.135000
     49 H26          2.7680     0.2490     3.6510 ha         1 CMI       0.115000
     50 H28          1.0280     1.9140     7.1810 ha         1 CMI       0.112000
     51 H30         -0.8110    -1.4370     5.2700 ha         1 CMI       0.115000
     52 H321         2.7090     2.2370    -7.1050 hn         1 CMI       0.461000
     53 H322         2.2970     2.8410    -5.5870 hn         1 CMI       0.461000
     54 H331         3.9460     1.8300     6.1540 hc         1 CMI       0.043700
     55 H332         3.5790     2.3930     4.5320 hc         1 CMI       0.043700
     56 H333         2.8040     3.1440     5.9280 hc         1 CMI       0.043700
     57 H371        -1.9470     0.8880     7.0330 hc         1 CMI       0.043700
     58 H372        -1.5140    -0.7330     7.5470 hc         1 CMI       0.043700
     59 H373        -0.7700     0.6680     8.3180 hc         1 CMI       0.043700
     60 H53          2.5020    -0.0060    -7.4220 hn         1 CMI       0.372400
@<TRIPOS>BOND
     1     1     2 ar  
     2     1     6 ar  
     3     1    33 1   
     4     2     3 ar  
     5     2    34 1   
     6     3     4 ar  
     7     3     7 1   
     8     4     5 ar  
     9     4     9 1   
    10     5     6 ar  
    11     5    10 1   
    12     6    35 1   
    13     7     8 1   
    14     7    15 1   
    15     8     9 2   
    16     8    11 1   
    17     9    36 1   
    18    10    37 1   
    19    10    38 1   
    20    10    39 1   
    21    11    12 1   
    22    11    31 2   
    23    12    13 1   
    24    12    40 1   
    25    13    14 1   
    26    13    41 1   
    27    13    42 1   
    28    14    22 ar  
    29    14    26 ar  
    30    15    16 1   
    31    15    43 1   
    32    15    44 1   
    33    16    17 ar  
    34    16    21 ar  
    35    17    18 ar  
    36    17    45 1   
    37    18    19 ar  
    38    18    46 1   
    39    19    20 ar  
    40    19    47 1   
    41    20    21 ar  
    42    20    27 1   
    43    21    48 1   
    44    22    23 ar  
    45    22    49 1   
    46    23    24 ar  
    47    23    29 1   
    48    24    25 ar  
    49    24    50 1   
    50    25    26 ar  
    51    25    30 1   
    52    26    51 1   
    53    27    28 1   
    54    27    32 2   
    55    28    52 1   
    56    28    53 1   
    57    29    54 1   
    58    29    55 1   
    59    29    56 1   
    60    30    57 1   
    61    30    58 1   
    62    30    59 1   
    63    32    60 1   
@<TRIPOS>SUBSTRUCTURE
     1 CMI         1 TEMP              0 ****  ****    0 ROOT
