@<TRIPOS>MOLECULE
CMI
   60    63     1     0     0
SMALL
No Charge or Current Charge


@<TRIPOS>ATOM
      1 C1          -3.6020     0.5960    -3.1200 ca         1 CMI      -0.086000
      2 C2          -2.3820    -0.0960    -2.9740 ca         1 CMI      -0.124000
      3 C3          -1.8210    -0.1800    -1.6880 ca         1 CMI      -0.032200
      4 C4          -2.4350     0.3980    -0.6120 ca         1 CMI      -0.108800
      5 C5          -3.6480     1.0950    -0.7140 ca         1 CMI      -0.022300
      6 C6          -4.2320     1.1870    -1.9980 ca         1 CMI      -0.141000
      7 N7          -0.6440    -0.7910    -1.2650 na         1 CMI      -0.052700
      8 C8          -0.4560    -0.6060     0.1270 cc         1 CMI      -0.138300
      9 C9          -1.5800     0.1280     0.5160 cd         1 CMI      -0.205200
     10 C10         -4.3040     1.7260     0.5050 c3         1 CMI      -0.045800
     11 C11          0.6530    -1.0500     1.0210 c          1 CMI       0.626300
     12 N12          0.5030    -0.6850     2.3370 ns         1 CMI      -0.500900
     13 C13          1.4560    -1.0010     3.3940 c3         1 CMI       0.153300
     14 C14          0.9930    -0.4350     4.7270 ca         1 CMI      -0.113300
     15 C17          0.2380    -1.4970    -2.2180 c3         1 CMI       0.113900
     16 C18          1.1160    -0.5720    -3.0610 ca         1 CMI      -0.121300
     17 C21          1.7620     0.5360    -2.4820 ca         1 CMI      -0.075000
     18 C22          2.5730     1.3690    -3.2670 ca         1 CMI      -0.120000
     19 C23          2.7420     1.1070    -4.6370 ca         1 CMI      -0.086000
     20 C24          2.0900     0.0080    -5.2460 ca         1 CMI      -0.144900
     21 C25          1.2940    -0.8350    -4.4350 ca         1 CMI      -0.051000
     22 C26          1.3640     0.8670     5.1120 ca         1 CMI      -0.099000
     23 C27          0.9290     1.3990     6.3400 ca         1 CMI      -0.074300
     24 C28          0.1210     0.6180     7.1870 ca         1 CMI      -0.102000
     25 C29         -0.2560    -0.6850     6.8120 ca         1 CMI      -0.074300
     26 C30          0.1800    -1.2060     5.5800 ca         1 CMI      -0.099000
     27 C31          2.2840    -0.3100    -6.7000 ce         1 CMI       0.660800
     28 N32          2.6730     0.6850    -7.5260 nv         1 CMI      -1.076200
     29 C33          1.3340     2.8070     6.7510 c3         1 CMI      -0.047800
     30 C37         -1.1360    -1.5210     7.7290 c3         1 CMI      -0.047800
     31 O45          1.6280    -1.6850     0.6440 o          1 CMI      -0.605100
     32 N53          2.0130    -1.4400    -7.2100 n2         1 CMI      -0.828100
     33 HC1         -4.0620     0.6790    -4.1020 ha         1 CMI       0.110000
     34 HC2         -1.8960    -0.5450    -3.8370 ha         1 CMI       0.120000
     35 HC6         -5.1720     1.7170    -2.1310 ha         1 CMI       0.109000
     36 HC9         -1.7930     0.4670     1.5260 ha         1 CMI       0.204000
     37 H101        -3.6470     2.4790     0.9560 hc         1 CMI       0.042367
     38 H102        -5.2480     2.2210     0.2470 hc         1 CMI       0.042367
     39 H103        -4.5220     0.9700     1.2670 hc         1 CMI       0.042367
     40 H12         -0.3260    -0.1620     2.5790 hn         1 CMI       0.327500
     41 H131         2.4360    -0.5810     3.1310 h1         1 CMI       0.059200
     42 H132         1.5620    -2.0920     3.4670 h1         1 CMI       0.059200
     43 H171         0.8800    -2.1940    -1.6680 h1         1 CMI       0.084700
     44 H172        -0.3910    -2.1110    -2.8750 h1         1 CMI       0.084700
     45 H21          1.6460     0.7510    -1.4220 ha         1 CMI       0.116000
     46 H22          3.0790     2.2170    -2.8120 ha         1 CMI       0.115000
     47 H23          3.3950     1.7580    -5.2140 ha         1 CMI       0.118000
     48 H25          0.7990    -1.6980    -4.8780 ha         1 CMI       0.135000
     49 H26          1.9890     1.4670     4.4540 ha         1 CMI       0.115000
     50 H28         -0.2160     1.0260     8.1380 ha         1 CMI       0.112000
     51 H30         -0.1150    -2.2100     5.2830 ha         1 CMI       0.115000
     52 H321         2.3830     0.5930    -8.4920 hn         1 CMI       0.461000
     53 H322         2.5930     1.6200    -7.1420 hn         1 CMI       0.461000
     54 H331         2.2790     2.7930     7.3070 hc         1 CMI       0.043700
     55 H332         1.4680     3.4560     5.8770 hc         1 CMI       0.043700
     56 H333         0.5750     3.2710     7.3910 hc         1 CMI       0.043700
     57 H371        -2.1970    -1.3640     7.5020 hc         1 CMI       0.043700
     58 H372        -0.9250    -2.5920     7.6190 hc         1 CMI       0.043700
     59 H373        -0.9770    -1.2630     8.7830 hc         1 CMI       0.043700
     60 H53          2.4260    -1.4700    -8.1490 hn         1 CMI       0.372400
@<TRIPOS>BOND
     1     1     2 ar  
     2     1     6 ar  
     3     1    33 1   
     4     2     3 ar  
     5     2    34 1   
     6     3     4 ar  
     7     3     7 1   
     8     4     5 ar  
     9     4     9 1   
    10     5     6 ar  
    11     5    10 1   
    12     6    35 1   
    13     7     8 1   
    14     7    15 1   
    15     8     9 2   
    16     8    11 1   
    17     9    36 1   
    18    10    37 1   
    19    10    38 1   
    20    10    39 1   
    21    11    12 1   
    22    11    31 2   
    23    12    13 1   
    24    12    40 1   
    25    13    14 1   
    26    13    41 1   
    27    13    42 1   
    28    14    22 ar  
    29    14    26 ar  
    30    15    16 1   
    31    15    43 1   
    32    15    44 1   
    33    16    17 ar  
    34    16    21 ar  
    35    17    18 ar  
    36    17    45 1   
    37    18    19 ar  
    38    18    46 1   
    39    19    20 ar  
    40    19    47 1   
    41    20    21 ar  
    42    20    27 1   
    43    21    48 1   
    44    22    23 ar  
    45    22    49 1   
    46    23    24 ar  
    47    23    29 1   
    48    24    25 ar  
    49    24    50 1   
    50    25    26 ar  
    51    25    30 1   
    52    26    51 1   
    53    27    28 1   
    54    27    32 2   
    55    28    52 1   
    56    28    53 1   
    57    29    54 1   
    58    29    55 1   
    59    29    56 1   
    60    30    57 1   
    61    30    58 1   
    62    30    59 1   
    63    32    60 1   
@<TRIPOS>SUBSTRUCTURE
     1 CMI         1 TEMP              0 ****  ****    0 ROOT
