@<TRIPOS>MOLECULE
CMJ
  131   130     1     0     0
SMALL
abcg2


@<TRIPOS>ATOM
      1 C2          24.5830    -0.8840     1.2870 c3         1 CMJ      -0.075400
      2 C4          22.0610    -0.6440     1.0340 c3         1 CMJ      -0.074400
      3 C5          20.9140     0.0570     0.3190 c3         1 CMJ      -0.073400
      4 C6          19.5410    -0.4110     0.7860 c3         1 CMJ      -0.074400
      5 C43        -25.9220    -1.0870     1.4300 c3         1 CMJ      -0.088100
      6 C42        -24.7960    -0.3680     0.7000 c3         1 CMJ      -0.074400
      7 C41        -23.4130    -0.8230     1.1510 c3         1 CMJ      -0.075400
      8 C40        -22.2760    -0.1110     0.4290 c3         1 CMJ      -0.074400
      9 C39        -20.8960    -0.5710     0.8830 c3         1 CMJ      -0.074400
     10 C38        -19.7540     0.1350     0.1650 c3         1 CMJ      -0.073400
     11 C37        -18.3790    -0.3330     0.6250 c3         1 CMJ      -0.074400
     12 C36        -17.2280     0.3640    -0.0900 c3         1 CMJ      -0.073400
     13 C35        -15.8600    -0.1160     0.3770 c3         1 CMJ      -0.074400
     14 C34        -14.6960     0.5670    -0.3320 c3         1 CMJ      -0.073400
     15 C33        -13.3390     0.0690     0.1490 c3         1 CMJ      -0.075400
     16 C32        -12.1550     0.7290    -0.5470 c3         1 CMJ      -0.073400
     17 C31        -10.8160     0.2000    -0.0500 c3         1 CMJ      -0.075400
     18 C30         -9.6050     0.8260    -0.7310 c3         1 CMJ      -0.072400
     19 C29         -8.2910     0.2520    -0.2160 c3         1 CMJ      -0.075400
     20 C28         -7.0480     0.8360    -0.8760 c3         1 CMJ      -0.072400
     21 C27         -5.7650     0.2140    -0.3390 c3         1 CMJ      -0.075400
     22 C26         -4.4890     0.7530    -0.9740 c3         1 CMJ      -0.072400
     23 C25         -3.2400     0.0770    -0.4220 c3         1 CMJ      -0.075400
     24 C24         -1.9350     0.5740    -1.0300 c3         1 CMJ      -0.073400
     25 C23         -0.7210    -0.1560    -0.4670 c3         1 CMJ      -0.074400
     26 C22          0.6030     0.3070    -1.0620 c3         1 CMJ      -0.071400
     27 C20          1.8420    -0.3550    -0.4500 c3         1 CMJ      -0.057700
     28 C21          1.8420    -1.8650    -0.6710 c3         1 CMJ      -0.087100
     29 C19          3.1150     0.2960    -1.0000 c3         1 CMJ      -0.071400
     30 C18          4.4050    -0.1750    -0.3390 c3         1 CMJ      -0.074400
     31 C17          5.6510     0.5380    -0.8520 c3         1 CMJ      -0.073400
     32 C16          6.9250     0.0230    -0.1940 c3         1 CMJ      -0.075400
     33 C15          8.2040     0.6700    -0.7100 c3         1 CMJ      -0.072400
     34 C14          9.4500     0.1030    -0.0420 c3         1 CMJ      -0.075400
     35 C13         10.7590     0.6930    -0.5510 c3         1 CMJ      -0.072400
     36 C12         11.9750     0.0780     0.1300 c3         1 CMJ      -0.075400
     37 C11         13.3100     0.6170    -0.3680 c3         1 CMJ      -0.073400
     38 C10         14.4990    -0.0360     0.3240 c3         1 CMJ      -0.075400
     39 C9          15.8520     0.4690    -0.1610 c3         1 CMJ      -0.073400
     40 C8          17.0220    -0.2090     0.5420 c3         1 CMJ      -0.074400
     41 C7          18.3860     0.2780     0.0720 c3         1 CMJ      -0.073400
     42 C3          23.4370    -0.1780     0.5730 c3         1 CMJ      -0.075400
     43 C1          25.9530    -0.4130     0.8190 c3         1 CMJ      -0.088100
     44 H2          24.4890    -0.7250     2.3660 hc         1 CMJ       0.036700
     45 H2A         24.4930    -1.9640     1.1330 hc         1 CMJ       0.036700
     46 H4          21.9680    -0.4840     2.1140 hc         1 CMJ       0.036700
     47 H4A         21.9760    -1.7260     0.8820 hc         1 CMJ       0.036700
     48 H5          20.9990     1.1390     0.4680 hc         1 CMJ       0.036700
     49 H5A         21.0050    -0.1070    -0.7610 hc         1 CMJ       0.036700
     50 H6          19.4590    -1.4940     0.6430 hc         1 CMJ       0.036700
     51 H6A         19.4500    -0.2440     1.8660 hc         1 CMJ       0.036700
     52 H43        -25.8640    -0.9180     2.5070 hc         1 CMJ       0.031367
     53 H43A       -26.9020    -0.7460     1.0940 hc         1 CMJ       0.031367
     54 H43B       -25.8730    -2.1650     1.2660 hc         1 CMJ       0.031367
     55 H42        -24.8950    -0.5300    -0.3780 hc         1 CMJ       0.036700
     56 H42A       -24.8890     0.7110     0.8540 hc         1 CMJ       0.036700
     57 H41        -23.3140    -0.6640     2.2300 hc         1 CMJ       0.036700
     58 H41A       -23.3200    -1.9040     0.9960 hc         1 CMJ       0.036700
     59 H40        -22.3740    -0.2710    -0.6510 hc         1 CMJ       0.036700
     60 H40A       -22.3680     0.9700     0.5830 hc         1 CMJ       0.036700
     61 H39        -20.7990    -0.4120     1.9630 hc         1 CMJ       0.036700
     62 H39A       -20.8070    -1.6530     0.7300 hc         1 CMJ       0.036700
     63 H38        -19.8500    -0.0250    -0.9150 hc         1 CMJ       0.037200
     64 H38A       -19.8410     1.2160     0.3190 hc         1 CMJ       0.037200
     65 H37        -18.2850    -0.1720     1.7040 hc         1 CMJ       0.036700
     66 H37A       -18.2950    -1.4150     0.4730 hc         1 CMJ       0.036700
     67 H36        -17.3200     0.2050    -1.1700 hc         1 CMJ       0.037700
     68 H36A       -17.3070     1.4470     0.0630 hc         1 CMJ       0.037700
     69 H35        -15.7690     0.0440     1.4570 hc         1 CMJ       0.036700
     70 H35A       -15.7870    -1.1990     0.2270 hc         1 CMJ       0.036700
     71 H34        -14.7820     0.4050    -1.4120 hc         1 CMJ       0.037700
     72 H34A       -14.7620     1.6500    -0.1820 hc         1 CMJ       0.037700
     73 H33        -13.2570     0.2290     1.2300 hc         1 CMJ       0.036700
     74 H33A       -13.2810    -1.0160     0.0020 hc         1 CMJ       0.036700
     75 H32        -12.2320     0.5700    -1.6280 hc         1 CMJ       0.037700
     76 H32A       -12.2010     1.8130    -0.3970 hc         1 CMJ       0.037700
     77 H31        -10.7440     0.3610     1.0320 hc         1 CMJ       0.036700
     78 H31A       -10.7840    -0.8860    -0.1930 hc         1 CMJ       0.036700
     79 H30         -9.6740     0.6710    -1.8130 hc         1 CMJ       0.037700
     80 H30A        -9.6180     1.9110    -0.5790 hc         1 CMJ       0.037700
     81 H29         -8.2300     0.4060     0.8670 hc         1 CMJ       0.036700
     82 H29A        -8.2950    -0.8340    -0.3620 hc         1 CMJ       0.036700
     83 H28         -7.1030     0.6850    -1.9590 hc         1 CMJ       0.037700
     84 H28A        -7.0240     1.9210    -0.7220 hc         1 CMJ       0.037700
     85 H27         -5.7180     0.3650     0.7450 hc         1 CMJ       0.036700
     86 H27A        -5.8060    -0.8720    -0.4870 hc         1 CMJ       0.036700
     87 H26         -4.5320     0.6110    -2.0600 hc         1 CMJ       0.037700
     88 H26A        -4.4250     1.8340    -0.8120 hc         1 CMJ       0.037700
     89 H25         -3.2070     0.2160     0.6640 hc         1 CMJ       0.036700
     90 H25A        -3.3200    -1.0040    -0.5810 hc         1 CMJ       0.036700
     91 H24         -1.9660     0.4460    -2.1170 hc         1 CMJ       0.037700
     92 H24A        -1.8340     1.6510    -0.8540 hc         1 CMJ       0.037700
     93 H23         -0.6930    -0.0230     0.6210 hc         1 CMJ       0.037700
     94 H23A        -0.8530    -1.2290    -0.6360 hc         1 CMJ       0.037700
     95 H22          0.6000     0.1320    -2.1450 hc         1 CMJ       0.037200
     96 H22A         0.6880     1.3920    -0.9330 hc         1 CMJ       0.037200
     97 H20          1.8150    -0.1690     0.6320 hc         1 CMJ       0.043700
     98 H21          2.7020    -2.3450    -0.2030 hc         1 CMJ       0.032033
     99 H21A         0.9520    -2.3380    -0.2550 hc         1 CMJ       0.032033
    100 H21B         1.8720    -2.1000    -1.7380 hc         1 CMJ       0.032033
    101 H19          3.1720     0.1180    -2.0800 hc         1 CMJ       0.037200
    102 H19A         3.0320     1.3830    -0.8780 hc         1 CMJ       0.037200
    103 H18          4.3280    -0.0340     0.7450 hc         1 CMJ       0.037700
    104 H18A         4.5330    -1.2500    -0.4940 hc         1 CMJ       0.037700
    105 H17          5.7240     0.4060    -1.9380 hc         1 CMJ       0.037200
    106 H17A         5.5580     1.6160    -0.6830 hc         1 CMJ       0.037200
    107 H16          6.8570     0.1710     0.8900 hc         1 CMJ       0.036200
    108 H16A         6.9900    -1.0610    -0.3430 hc         1 CMJ       0.036200
    109 H15          8.2740     0.5250    -1.7940 hc         1 CMJ       0.037700
    110 H15A         8.1600     1.7530    -0.5510 hc         1 CMJ       0.037700
    111 H14          9.3810     0.2580     1.0410 hc         1 CMJ       0.036700
    112 H14A         9.4690    -0.9830    -0.1860 hc         1 CMJ       0.036700
    113 H13         10.8310     0.5410    -1.6330 hc         1 CMJ       0.037700
    114 H13A        10.7600     1.7780    -0.3970 hc         1 CMJ       0.037700
    115 H12         11.9030     0.2390     1.2120 hc         1 CMJ       0.036700
    116 H12A        11.9520    -1.0080    -0.0120 hc         1 CMJ       0.036700
    117 H11         13.3860     0.4600    -1.4500 hc         1 CMJ       0.037700
    118 H11A        13.3480     1.7020    -0.2170 hc         1 CMJ       0.037700
    119 H10         14.4200     0.1240     1.4050 hc         1 CMJ       0.036700
    120 H10A        14.4470    -1.1210     0.1780 hc         1 CMJ       0.036700
    121 H9          15.9350     0.3100    -1.2420 hc         1 CMJ       0.037700
    122 H9A         15.9140     1.5520    -0.0090 hc         1 CMJ       0.037700
    123 H8          16.9340    -0.0500     1.6230 hc         1 CMJ       0.036700
    124 H8A         16.9530    -1.2920     0.3920 hc         1 CMJ       0.036700
    125 H7          18.4590     1.3610     0.2240 hc         1 CMJ       0.037700
    126 H7A         18.4780     0.1180    -1.0080 hc         1 CMJ       0.037700
    127 H3          23.5250     0.9030     0.7280 hc         1 CMJ       0.036700
    128 H3A         23.5310    -0.3370    -0.5070 hc         1 CMJ       0.036700
    129 H1          26.7570    -0.9320     1.3410 hc         1 CMJ       0.031367
    130 H1A         26.0850    -0.5900    -0.2500 hc         1 CMJ       0.031367
    131 H1B         26.0820     0.6560     0.9930 hc         1 CMJ       0.031367
@<TRIPOS>BOND
     1     1    42 1   
     2     1    43 1   
     3     1    44 1   
     4     1    45 1   
     5     2     3 1   
     6     2    42 1   
     7     2    46 1   
     8     2    47 1   
     9     3     4 1   
    10     3    48 1   
    11     3    49 1   
    12     4    41 1   
    13     4    50 1   
    14     4    51 1   
    15     5     6 1   
    16     5    52 1   
    17     5    53 1   
    18     5    54 1   
    19     6     7 1   
    20     6    55 1   
    21     6    56 1   
    22     7     8 1   
    23     7    57 1   
    24     7    58 1   
    25     8     9 1   
    26     8    59 1   
    27     8    60 1   
    28     9    10 1   
    29     9    61 1   
    30     9    62 1   
    31    10    11 1   
    32    10    63 1   
    33    10    64 1   
    34    11    12 1   
    35    11    65 1   
    36    11    66 1   
    37    12    13 1   
    38    12    67 1   
    39    12    68 1   
    40    13    14 1   
    41    13    69 1   
    42    13    70 1   
    43    14    15 1   
    44    14    71 1   
    45    14    72 1   
    46    15    16 1   
    47    15    73 1   
    48    15    74 1   
    49    16    17 1   
    50    16    75 1   
    51    16    76 1   
    52    17    18 1   
    53    17    77 1   
    54    17    78 1   
    55    18    19 1   
    56    18    79 1   
    57    18    80 1   
    58    19    20 1   
    59    19    81 1   
    60    19    82 1   
    61    20    21 1   
    62    20    83 1   
    63    20    84 1   
    64    21    22 1   
    65    21    85 1   
    66    21    86 1   
    67    22    23 1   
    68    22    87 1   
    69    22    88 1   
    70    23    24 1   
    71    23    89 1   
    72    23    90 1   
    73    24    25 1   
    74    24    91 1   
    75    24    92 1   
    76    25    26 1   
    77    25    93 1   
    78    25    94 1   
    79    26    27 1   
    80    26    95 1   
    81    26    96 1   
    82    27    28 1   
    83    27    29 1   
    84    27    97 1   
    85    28    98 1   
    86    28    99 1   
    87    28   100 1   
    88    29    30 1   
    89    29   101 1   
    90    29   102 1   
    91    30    31 1   
    92    30   103 1   
    93    30   104 1   
    94    31    32 1   
    95    31   105 1   
    96    31   106 1   
    97    32    33 1   
    98    32   107 1   
    99    32   108 1   
   100    33    34 1   
   101    33   109 1   
   102    33   110 1   
   103    34    35 1   
   104    34   111 1   
   105    34   112 1   
   106    35    36 1   
   107    35   113 1   
   108    35   114 1   
   109    36    37 1   
   110    36   115 1   
   111    36   116 1   
   112    37    38 1   
   113    37   117 1   
   114    37   118 1   
   115    38    39 1   
   116    38   119 1   
   117    38   120 1   
   118    39    40 1   
   119    39   121 1   
   120    39   122 1   
   121    40    41 1   
   122    40   123 1   
   123    40   124 1   
   124    41   125 1   
   125    41   126 1   
   126    42   127 1   
   127    42   128 1   
   128    43   129 1   
   129    43   130 1   
   130    43   131 1   
@<TRIPOS>SUBSTRUCTURE
     1 CMJ         1 TEMP              0 ****  ****    0 ROOT
