@<TRIPOS>MOLECULE
CMJ
  131   130     1     0     0
SMALL
No Charge or Current Charge


@<TRIPOS>ATOM
      1 C2          24.8480     1.3610     0.9610 c3         1 CMJ      -0.075400
      2 C4          22.3040     0.9830     0.8070 c3         1 CMJ      -0.074400
      3 C5          20.9680     1.4490     0.1880 c3         1 CMJ      -0.073400
      4 C6          19.7610     0.6050     0.6520 c3         1 CMJ      -0.074400
      5 C43        -26.2650     1.3290     0.9030 c3         1 CMJ      -0.088100
      6 C42        -24.9370     1.8300     0.3020 c3         1 CMJ      -0.074400
      7 C41        -23.7120     1.0210     0.7810 c3         1 CMJ      -0.075400
      8 C40        -22.3820     1.5240     0.1790 c3         1 CMJ      -0.074400
      9 C39        -21.1570     0.7140     0.6590 c3         1 CMJ      -0.074400
     10 C38        -19.8270     1.2170     0.0570 c3         1 CMJ      -0.073400
     11 C37        -18.6020     0.4070     0.5360 c3         1 CMJ      -0.074400
     12 C36        -17.2720     0.9100    -0.0650 c3         1 CMJ      -0.073400
     13 C35        -16.0470     0.1000     0.4140 c3         1 CMJ      -0.074400
     14 C34        -14.7170     0.6030    -0.1880 c3         1 CMJ      -0.073400
     15 C33        -13.4920    -0.2070     0.2920 c3         1 CMJ      -0.075400
     16 C32        -12.1620     0.2960    -0.3100 c3         1 CMJ      -0.073400
     17 C31        -10.9370    -0.5140     0.1700 c3         1 CMJ      -0.075400
     18 C30         -9.6070    -0.0110    -0.4320 c3         1 CMJ      -0.072400
     19 C29         -8.3820    -0.8210     0.0470 c3         1 CMJ      -0.075400
     20 C28         -7.0520    -0.3190    -0.5550 c3         1 CMJ      -0.072400
     21 C27         -5.8280    -1.1300    -0.0760 c3         1 CMJ      -0.075400
     22 C26         -4.4970    -0.6280    -0.6790 c3         1 CMJ      -0.072400
     23 C25         -3.2730    -1.4390    -0.2000 c3         1 CMJ      -0.075400
     24 C24         -1.9430    -0.9370    -0.8030 c3         1 CMJ      -0.073400
     25 C23         -0.7180    -1.7480    -0.3240 c3         1 CMJ      -0.074400
     26 C22          0.6130    -1.2460    -0.9360 c3         1 CMJ      -0.071400
     27 C20          1.8950    -1.9380    -0.3890 c3         1 CMJ      -0.057700
     28 C21          1.9190    -3.4590    -0.6970 c3         1 CMJ      -0.087100
     29 C19          3.1650    -1.2100    -0.9180 c3         1 CMJ      -0.071400
     30 C18          4.5010    -1.6740    -0.2890 c3         1 CMJ      -0.074400
     31 C17          5.7080    -0.8290    -0.7520 c3         1 CMJ      -0.073400
     32 C16          7.0440    -1.2920    -0.1300 c3         1 CMJ      -0.075400
     33 C15          8.2510    -0.4470    -0.5930 c3         1 CMJ      -0.072400
     34 C14          9.5870    -0.9110     0.0280 c3         1 CMJ      -0.075400
     35 C13         10.7940    -0.0660    -0.4350 c3         1 CMJ      -0.072400
     36 C12         12.1300    -0.5310     0.1850 c3         1 CMJ      -0.075400
     37 C11         13.3380     0.3140    -0.2780 c3         1 CMJ      -0.073400
     38 C10         14.6740    -0.1510     0.3410 c3         1 CMJ      -0.075400
     39 C9          15.8810     0.6930    -0.1220 c3         1 CMJ      -0.073400
     40 C8          17.2170     0.2270     0.4970 c3         1 CMJ      -0.074400
     41 C7          18.4250     1.0710     0.0330 c3         1 CMJ      -0.073400
     42 C3          23.5120     1.8270     0.3430 c3         1 CMJ      -0.075400
     43 C1          26.0530     2.2020     0.4990 c3         1 CMJ      -0.088100
     44 H2          24.7790     1.4090     2.0550 hc         1 CMJ       0.036700
     45 H2A         25.0250     0.3110     0.6980 hc         1 CMJ       0.036700
     46 H4          22.2310     1.0310     1.9010 hc         1 CMJ       0.036700
     47 H4A         22.4770    -0.0680     0.5430 hc         1 CMJ       0.036700
     48 H5          20.7960     2.5000     0.4520 hc         1 CMJ       0.036700
     49 H5A         21.0420     1.4010    -0.9060 hc         1 CMJ       0.036700
     50 H6          19.9330    -0.4460     0.3880 hc         1 CMJ       0.036700
     51 H6A         19.6870     0.6530     1.7460 hc         1 CMJ       0.036700
     52 H43        -26.2460     1.3980     1.9970 hc         1 CMJ       0.031367
     53 H43A       -27.1030     1.9320     0.5340 hc         1 CMJ       0.031367
     54 H43B       -26.4460     0.2840     0.6240 hc         1 CMJ       0.031367
     55 H42        -25.0000     1.7810    -0.7920 hc         1 CMJ       0.036700
     56 H42A       -24.8020     2.8860     0.5680 hc         1 CMJ       0.036700
     57 H41        -23.6540     1.0700     1.8760 hc         1 CMJ       0.036700
     58 H41A       -23.8520    -0.0350     0.5150 hc         1 CMJ       0.036700
     59 H40        -22.4400     1.4740    -0.9150 hc         1 CMJ       0.036700
     60 H40A       -22.2420     2.5790     0.4460 hc         1 CMJ       0.036700
     61 H39        -21.0990     0.7630     1.7530 hc         1 CMJ       0.036700
     62 H39A       -21.2970    -0.3420     0.3930 hc         1 CMJ       0.036700
     63 H38        -19.8850     1.1670    -1.0380 hc         1 CMJ       0.037200
     64 H38A       -19.6870     2.2720     0.3230 hc         1 CMJ       0.037200
     65 H37        -18.5440     0.4560     1.6310 hc         1 CMJ       0.036700
     66 H37A       -18.7420    -0.6480     0.2700 hc         1 CMJ       0.036700
     67 H36        -17.3300     0.8600    -1.1600 hc         1 CMJ       0.037700
     68 H36A       -17.1320     1.9650     0.2010 hc         1 CMJ       0.037700
     69 H35        -15.9890     0.1490     1.5090 hc         1 CMJ       0.036700
     70 H35A       -16.1870    -0.9550     0.1480 hc         1 CMJ       0.036700
     71 H34        -14.7750     0.5540    -1.2820 hc         1 CMJ       0.037700
     72 H34A       -14.5770     1.6580     0.0790 hc         1 CMJ       0.037700
     73 H33        -13.4340    -0.1570     1.3870 hc         1 CMJ       0.036700
     74 H33A       -13.6320    -1.2620     0.0260 hc         1 CMJ       0.036700
     75 H32        -12.2200     0.2470    -1.4040 hc         1 CMJ       0.037700
     76 H32A       -12.0220     1.3510    -0.0440 hc         1 CMJ       0.037700
     77 H31        -10.8790    -0.4640     1.2640 hc         1 CMJ       0.036700
     78 H31A       -11.0770    -1.5690    -0.0960 hc         1 CMJ       0.036700
     79 H30         -9.6650    -0.0600    -1.5270 hc         1 CMJ       0.037700
     80 H30A        -9.4670     1.0440    -0.1660 hc         1 CMJ       0.037700
     81 H29         -8.3240    -0.7720     1.1420 hc         1 CMJ       0.036700
     82 H29A        -8.5220    -1.8770    -0.2190 hc         1 CMJ       0.036700
     83 H28         -7.1110    -0.3680    -1.6500 hc         1 CMJ       0.037700
     84 H28A        -6.9120     0.7360    -0.2890 hc         1 CMJ       0.037700
     85 H27         -5.7690    -1.0800     1.0180 hc         1 CMJ       0.036700
     86 H27A        -5.9680    -2.1850    -0.3420 hc         1 CMJ       0.036700
     87 H26         -4.5560    -0.6770    -1.7730 hc         1 CMJ       0.037700
     88 H26A        -4.3570     0.4280    -0.4130 hc         1 CMJ       0.037700
     89 H25         -3.2140    -1.3890     0.8940 hc         1 CMJ       0.036700
     90 H25A        -3.4140    -2.4940    -0.4660 hc         1 CMJ       0.036700
     91 H24         -2.0020    -0.9870    -1.8980 hc         1 CMJ       0.037700
     92 H24A        -1.8030     0.1180    -0.5380 hc         1 CMJ       0.037700
     93 H23         -0.6570    -1.6940     0.7700 hc         1 CMJ       0.037700
     94 H23A        -0.8750    -2.8000    -0.5890 hc         1 CMJ       0.037700
     95 H22          0.5740    -1.3650    -2.0260 hc         1 CMJ       0.037200
     96 H22A         0.6880    -0.1680    -0.7440 hc         1 CMJ       0.037200
     97 H20          1.8860    -1.8230     0.7030 hc         1 CMJ       0.043700
     98 H21          2.8010    -3.9400    -0.2600 hc         1 CMJ       0.032033
     99 H21A         1.0450    -3.9650    -0.2720 hc         1 CMJ       0.032033
    100 H21B         1.9290    -3.6380    -1.7790 hc         1 CMJ       0.032033
    101 H19          3.2210    -1.3280    -2.0080 hc         1 CMJ       0.037200
    102 H19A         3.0570    -0.1350    -0.7280 hc         1 CMJ       0.037200
    103 H18          4.4230    -1.6220     0.8040 hc         1 CMJ       0.037700
    104 H18A         4.6910    -2.7210    -0.5510 hc         1 CMJ       0.037700
    105 H17          5.7830    -0.8770    -1.8450 hc         1 CMJ       0.037200
    106 H17A         5.5350     0.2220    -0.4880 hc         1 CMJ       0.037200
    107 H16          6.9690    -1.2440     0.9630 hc         1 CMJ       0.036200
    108 H16A         7.2190    -2.3430    -0.3940 hc         1 CMJ       0.036200
    109 H15          8.3260    -0.4940    -1.6870 hc         1 CMJ       0.037700
    110 H15A         8.0770     0.6040    -0.3290 hc         1 CMJ       0.037700
    111 H14          9.5120    -0.8630     1.1210 hc         1 CMJ       0.036700
    112 H14A         9.7610    -1.9620    -0.2360 hc         1 CMJ       0.036700
    113 H13         10.8690    -0.1140    -1.5290 hc         1 CMJ       0.037700
    114 H13A        10.6210     0.9850    -0.1710 hc         1 CMJ       0.037700
    115 H12         12.0560    -0.4830     1.2780 hc         1 CMJ       0.036700
    116 H12A        12.3030    -1.5820    -0.0790 hc         1 CMJ       0.036700
    117 H11         13.4120     0.2660    -1.3720 hc         1 CMJ       0.037700
    118 H11A        13.1650     1.3650    -0.0140 hc         1 CMJ       0.037700
    119 H10         14.5990    -0.1030     1.4350 hc         1 CMJ       0.036700
    120 H10A        14.8460    -1.2020     0.0770 hc         1 CMJ       0.036700
    121 H9          15.9550     0.6450    -1.2160 hc         1 CMJ       0.037700
    122 H9A         15.7080     1.7440     0.1420 hc         1 CMJ       0.037700
    123 H8          17.1430     0.2750     1.5910 hc         1 CMJ       0.036700
    124 H8A         17.3900    -0.8240     0.2330 hc         1 CMJ       0.036700
    125 H7          18.2520     2.1220     0.2970 hc         1 CMJ       0.037700
    126 H7A         18.4980     1.0230    -1.0610 hc         1 CMJ       0.037700
    127 H3          23.3400     2.8780     0.6070 hc         1 CMJ       0.036700
    128 H3A         23.5860     1.7790    -0.7510 hc         1 CMJ       0.036700
    129 H1          26.9770     1.8350     0.9630 hc         1 CMJ       0.031367
    130 H1A         26.1710     2.1460    -0.5900 hc         1 CMJ       0.031367
    131 H1B         25.9230     3.2540     0.7790 hc         1 CMJ       0.031367
@<TRIPOS>BOND
     1     1    42 1   
     2     1    43 1   
     3     1    44 1   
     4     1    45 1   
     5     2     3 1   
     6     2    42 1   
     7     2    46 1   
     8     2    47 1   
     9     3     4 1   
    10     3    48 1   
    11     3    49 1   
    12     4    41 1   
    13     4    50 1   
    14     4    51 1   
    15     5     6 1   
    16     5    52 1   
    17     5    53 1   
    18     5    54 1   
    19     6     7 1   
    20     6    55 1   
    21     6    56 1   
    22     7     8 1   
    23     7    57 1   
    24     7    58 1   
    25     8     9 1   
    26     8    59 1   
    27     8    60 1   
    28     9    10 1   
    29     9    61 1   
    30     9    62 1   
    31    10    11 1   
    32    10    63 1   
    33    10    64 1   
    34    11    12 1   
    35    11    65 1   
    36    11    66 1   
    37    12    13 1   
    38    12    67 1   
    39    12    68 1   
    40    13    14 1   
    41    13    69 1   
    42    13    70 1   
    43    14    15 1   
    44    14    71 1   
    45    14    72 1   
    46    15    16 1   
    47    15    73 1   
    48    15    74 1   
    49    16    17 1   
    50    16    75 1   
    51    16    76 1   
    52    17    18 1   
    53    17    77 1   
    54    17    78 1   
    55    18    19 1   
    56    18    79 1   
    57    18    80 1   
    58    19    20 1   
    59    19    81 1   
    60    19    82 1   
    61    20    21 1   
    62    20    83 1   
    63    20    84 1   
    64    21    22 1   
    65    21    85 1   
    66    21    86 1   
    67    22    23 1   
    68    22    87 1   
    69    22    88 1   
    70    23    24 1   
    71    23    89 1   
    72    23    90 1   
    73    24    25 1   
    74    24    91 1   
    75    24    92 1   
    76    25    26 1   
    77    25    93 1   
    78    25    94 1   
    79    26    27 1   
    80    26    95 1   
    81    26    96 1   
    82    27    28 1   
    83    27    29 1   
    84    27    97 1   
    85    28    98 1   
    86    28    99 1   
    87    28   100 1   
    88    29    30 1   
    89    29   101 1   
    90    29   102 1   
    91    30    31 1   
    92    30   103 1   
    93    30   104 1   
    94    31    32 1   
    95    31   105 1   
    96    31   106 1   
    97    32    33 1   
    98    32   107 1   
    99    32   108 1   
   100    33    34 1   
   101    33   109 1   
   102    33   110 1   
   103    34    35 1   
   104    34   111 1   
   105    34   112 1   
   106    35    36 1   
   107    35   113 1   
   108    35   114 1   
   109    36    37 1   
   110    36   115 1   
   111    36   116 1   
   112    37    38 1   
   113    37   117 1   
   114    37   118 1   
   115    38    39 1   
   116    38   119 1   
   117    38   120 1   
   118    39    40 1   
   119    39   121 1   
   120    39   122 1   
   121    40    41 1   
   122    40   123 1   
   123    40   124 1   
   124    41   125 1   
   125    41   126 1   
   126    42   127 1   
   127    42   128 1   
   128    43   129 1   
   129    43   130 1   
   130    43   131 1   
@<TRIPOS>SUBSTRUCTURE
     1 CMJ         1 TEMP              0 ****  ****    0 ROOT
