@<TRIPOS>MOLECULE
CMK
   60    62     1     0     0
SMALL
No Charge or Current Charge


@<TRIPOS>ATOM
      1 N1C          0.8720    -0.5020     3.8680 n          1 CMK      -0.306000
      2 C2C          0.4150     0.4270     4.8300 c          1 CMK       0.718400
      3 N3C          0.9840     0.4010     6.0770 nc         1 CMK      -0.775100
      4 C4C          1.9050    -0.4560     6.3540 cd         1 CMK       0.783500
      5 C5C          2.3890    -1.4260     5.4580 cd         1 CMK      -0.511600
      6 C6C          1.8510    -1.4360     4.1940 cc         1 CMK       0.046600
      7 O2C         -0.4810     1.2270     4.6170 o          1 CMK      -0.535000
      8 N4C          2.3750    -0.3990     7.5820 nv         1 CMK      -1.048200
      9 C1           0.3450    -0.4890     2.4760 c5         1 CMK       0.322700
     10 C2          -1.0470    -1.2310     2.4660 c5         1 CMK       0.101300
     11 O2          -1.1220    -2.2840     1.4980 oh         1 CMK      -0.738000
     12 C3          -2.0040    -0.0870     2.0020 c5         1 CMK       0.089300
     13 C4          -1.0380     0.7560     1.1080 c5         1 CMK       0.169300
     14 O4           0.1320     0.8330     1.9470 os         1 CMK      -0.404000
     15 O3          -3.1400    -0.6310     1.2950 oh         1 CMK      -0.710000
     16 C5          -1.5530     2.1790     0.7420 c3         1 CMK       0.229600
     17 O5          -1.0690     2.5990    -0.5470 os         1 CMK      -0.574400
     18 PA           0.4760     3.0000    -0.8130 p5         1 CMK       1.428800
     19 O1A          0.6040     3.7580    -2.0940 o          1 CMK      -0.824500
     20 O2A          1.0070     3.8120     0.3230 o          1 CMK      -0.824500
     21 O6          -0.1970     0.6470    -2.5300 os         1 CMK      -0.458000
     22 C10          1.1890     0.7290    -2.0630 c6         1 CMK       0.334000
     23 O9           1.1660     1.5390    -0.8630 os         1 CMK      -0.583400
     24 C11          1.6280    -0.6880    -1.5780 c6         1 CMK      -0.118400
     25 C12          1.3450    -1.7990    -2.6220 c6         1 CMK       0.122300
     26 O10          1.6730    -3.0810    -2.0570 oh         1 CMK      -0.710000
     27 C13         -0.1500    -1.7830    -3.0530 c6         1 CMK       0.149300
     28 C6          -0.4990    -0.3450    -3.5510 c6         1 CMK       0.176300
     29 C7          -2.0050    -0.1790    -3.9490 c3         1 CMK       0.175300
     30 C9           2.2700     1.2680    -3.1560 c          1 CMK       0.690000
     31 O1X          1.8960     1.4060    -4.3170 o          1 CMK      -0.714500
     32 O1Y          3.1490     2.0240    -2.7490 o          1 CMK      -0.714500
     33 O11         -0.9450    -2.2100    -1.9320 oh         1 CMK      -0.708000
     34 C8          -2.3820     1.2720    -4.3490 c3         1 CMK       0.109600
     35 O8          -3.7300     1.3070    -4.8710 oh         1 CMK      -0.687000
     36 O7          -2.3820    -1.0290    -5.0530 oh         1 CMK      -0.733000
     37 H5C          3.1590    -2.1290     5.7530 ha         1 CMK       0.189000
     38 H6C          2.1140    -2.1140     3.3850 h4         1 CMK       0.199000
     39 H4C1         1.7820     0.1240     8.2120 hn         1 CMK       0.491500
     40 H4C2         2.7580    -1.2600     7.9480 hn         1 CMK       0.491500
     41 H1           1.0670    -1.0220     1.8460 h2         1 CMK       0.056700
     42 H2          -1.3290    -1.6020     3.4620 h1         1 CMK       0.055700
     43 HA          -1.9730    -2.0640     1.0320 ho         1 CMK       0.524000
     44 H3          -2.3310     0.5070     2.8690 h1         1 CMK       0.086700
     45 H4          -0.7980     0.2080     0.1870 h1         1 CMK       0.072700
     46 HB          -3.8850     0.0110     1.3760 ho         1 CMK       0.498000
     47 H5'1        -2.6500     2.1560     0.7180 h1         1 CMK       0.033200
     48 H5'2        -1.2620     2.8890     1.5270 h1         1 CMK       0.033200
     49 H3C1         2.6990    -0.6720    -1.3410 hc         1 CMK       0.052700
     50 H3C2         1.1150    -0.9290    -0.6380 hc         1 CMK       0.052700
     51 H9           1.9610    -1.6100    -3.5150 h1         1 CMK       0.056700
     52 HC           2.6510    -3.1070    -1.9490 ho         1 CMK       0.439000
     53 H5          -0.2790    -2.4880    -3.8870 h1         1 CMK       0.013700
     54 H6           0.0900    -0.1400    -4.4530 h1         1 CMK       0.052700
     55 H7          -2.6010    -0.4350    -3.0610 h1         1 CMK       0.094700
     56 HD          -0.3140    -2.7750    -1.4260 ho         1 CMK       0.490000
     57 H8C1        -2.2920     1.9200    -3.4650 h1         1 CMK       0.070200
     58 H8C2        -1.6650     1.6380    -5.0980 h1         1 CMK       0.070200
     59 H8          -3.9570     2.2510    -5.0320 ho         1 CMK       0.426000
     60 HE          -3.1580    -0.5530    -5.4390 ho         1 CMK       0.480000
@<TRIPOS>BOND
     1     1     2 1   
     2     1     6 1   
     3     1     9 1   
     4     2     3 1   
     5     2     7 2   
     6     3     4 2   
     7     4     5 1   
     8     4     8 1   
     9     5     6 2   
    10     5    37 1   
    11     6    38 1   
    12     8    39 1   
    13     8    40 1   
    14     9    10 1   
    15     9    14 1   
    16     9    41 1   
    17    10    11 1   
    18    10    12 1   
    19    10    42 1   
    20    11    43 1   
    21    12    13 1   
    22    12    15 1   
    23    12    44 1   
    24    13    14 1   
    25    13    16 1   
    26    13    45 1   
    27    15    46 1   
    28    16    17 1   
    29    16    47 1   
    30    16    48 1   
    31    17    18 1   
    32    18    19 1   
    33    18    20 1   
    34    18    23 1   
    35    21    22 1   
    36    21    28 1   
    37    22    23 1   
    38    22    24 1   
    39    22    30 1   
    40    24    25 1   
    41    24    49 1   
    42    24    50 1   
    43    25    26 1   
    44    25    27 1   
    45    25    51 1   
    46    26    52 1   
    47    27    28 1   
    48    27    33 1   
    49    27    53 1   
    50    28    29 1   
    51    28    54 1   
    52    29    34 1   
    53    29    36 1   
    54    29    55 1   
    55    30    31 1   
    56    30    32 1   
    57    33    56 1   
    58    34    35 1   
    59    34    57 1   
    60    34    58 1   
    61    35    59 1   
    62    36    60 1   
@<TRIPOS>SUBSTRUCTURE
     1 CMK         1 TEMP              0 ****  ****    0 ROOT
