@<TRIPOS>MOLECULE
CMK
   60    62     1     0     0
SMALL
abcg2


@<TRIPOS>ATOM
      1 N1C          0.4300    -0.6650     5.4420 n          1 CMK      -0.306000
      2 C2C          0.4260     0.7070     5.7450 c          1 CMK       0.718400
      3 N3C          1.3530     1.1750     6.6040 nc         1 CMK      -0.775100
      4 C4C          2.2530     0.3740     7.1390 cd         1 CMK       0.783500
      5 C5C          2.3030    -1.0220     6.8370 cd         1 CMK      -0.511600
      6 C6C          1.3710    -1.4800     5.9800 cc         1 CMK       0.046600
      7 O2C         -0.4170     1.4280     5.2290 o          1 CMK      -0.535000
      8 N4C          3.1390     0.8950     7.9850 nv         1 CMK      -1.048200
      9 C1          -0.5200    -1.2190     4.4940 c5         1 CMK       0.322700
     10 C2          -2.0120    -0.9780     4.7900 c5         1 CMK       0.101300
     11 O2          -2.6620    -2.2230     4.7330 oh         1 CMK      -0.738000
     12 C3          -2.4660    -0.0810     3.6250 c5         1 CMK       0.089300
     13 C4          -1.4480    -0.4050     2.5330 c5         1 CMK       0.169300
     14 O4          -0.2470    -0.7180     3.2150 os         1 CMK      -0.404000
     15 O3          -3.7630    -0.3900     3.1760 oh         1 CMK      -0.710000
     16 C5          -1.2230     0.7450     1.5860 c3         1 CMK       0.229600
     17 O5          -0.3720     0.3320     0.5410 os         1 CMK      -0.574400
     18 PA          -0.1740     1.3660    -0.7330 p5         1 CMK       1.428800
     19 O1A         -1.5160     1.7040    -1.3000 o          1 CMK      -0.824500
     20 O2A          0.7780     2.4530    -0.3370 o          1 CMK      -0.824500
     21 O6          -0.2530     0.1680    -3.6540 os         1 CMK      -0.458000
     22 C10          0.9520     0.3040    -2.9500 c6         1 CMK       0.334000
     23 O9           0.6160     0.2030    -1.5950 os         1 CMK      -0.583400
     24 C11          1.8500    -0.8900    -3.2710 c6         1 CMK      -0.118400
     25 C12          2.0290    -1.0370    -4.7770 c6         1 CMK       0.122300
     26 O10          2.7350    -2.2130    -5.1200 oh         1 CMK      -0.710000
     27 C13          0.6750    -1.1030    -5.4810 c6         1 CMK       0.149300
     28 C6          -0.1330     0.1150    -5.0520 c6         1 CMK       0.176300
     29 C7          -1.5570     0.1550    -5.6110 c3         1 CMK       0.175300
     30 C9           1.6530     1.6780    -3.2370 c          1 CMK       0.690000
     31 O1X          0.9310     2.6050    -3.6340 o          1 CMK      -0.714500
     32 O1Y          2.8790     1.7090    -3.0240 o          1 CMK      -0.714500
     33 O11         -0.0290    -2.2730    -5.1440 oh         1 CMK      -0.708000
     34 C8          -2.2460     1.4460    -5.1920 c3         1 CMK       0.109600
     35 O8          -3.5770     1.4210    -5.6600 oh         1 CMK      -0.687000
     36 O7          -1.5540    -0.0130    -7.0110 oh         1 CMK      -0.733000
     37 H5C          3.0440    -1.6800     7.2650 ha         1 CMK       0.189000
     38 H6C          1.3320    -2.5200     5.6870 h4         1 CMK       0.199000
     39 H4C1         3.1050     1.8740     8.2160 hn         1 CMK       0.491500
     40 H4C2         3.8380     0.3280     8.4320 hn         1 CMK       0.491500
     41 H1          -0.3520    -2.3010     4.5240 h2         1 CMK       0.056700
     42 H2          -2.1690    -0.5040     5.7650 h1         1 CMK       0.055700
     43 HA          -3.5110    -2.0740     4.2950 ho         1 CMK       0.524000
     44 H3          -2.3880     0.9670     3.9180 h1         1 CMK       0.086700
     45 H4          -1.8030    -1.2800     1.9680 h1         1 CMK       0.072700
     46 HB          -4.3910     0.1860     3.6220 ho         1 CMK       0.498000
     47 H5'1        -2.2000     1.0620     1.2020 h1         1 CMK       0.033200
     48 H5'2        -0.7960     1.5880     2.1440 h1         1 CMK       0.033200
     49 H3C1         2.8200    -0.7680    -2.7870 hc         1 CMK       0.052700
     50 H3C2         1.3850    -1.7970    -2.8740 hc         1 CMK       0.052700
     51 H9           2.5580    -0.1520    -5.1600 h1         1 CMK       0.056700
     52 HC           3.5020    -2.2900    -4.5440 ho         1 CMK       0.439000
     53 H5           0.8450    -1.0410    -6.5660 h1         1 CMK       0.013700
     54 H6           0.3990     1.0000    -5.4330 h1         1 CMK       0.052700
     55 H7          -2.1210    -0.6920    -5.2100 h1         1 CMK       0.094700
     56 HD           0.5800    -3.0140    -5.2320 ho         1 CMK       0.490000
     57 H8C1        -2.1950     1.5460    -4.1040 h1         1 CMK       0.070200
     58 H8C2        -1.6870     2.2970    -5.6130 h1         1 CMK       0.070200
     59 H8          -4.0380     2.1710    -5.2760 ho         1 CMK       0.426000
     60 HE          -1.1300     0.7540    -7.4110 ho         1 CMK       0.480000
@<TRIPOS>BOND
     1     1     2 1   
     2     1     6 1   
     3     1     9 1   
     4     2     3 1   
     5     2     7 2   
     6     3     4 2   
     7     4     5 1   
     8     4     8 1   
     9     5     6 2   
    10     5    37 1   
    11     6    38 1   
    12     8    39 1   
    13     8    40 1   
    14     9    10 1   
    15     9    14 1   
    16     9    41 1   
    17    10    11 1   
    18    10    12 1   
    19    10    42 1   
    20    11    43 1   
    21    12    13 1   
    22    12    15 1   
    23    12    44 1   
    24    13    14 1   
    25    13    16 1   
    26    13    45 1   
    27    15    46 1   
    28    16    17 1   
    29    16    47 1   
    30    16    48 1   
    31    17    18 1   
    32    18    19 1   
    33    18    20 1   
    34    18    23 1   
    35    21    22 1   
    36    21    28 1   
    37    22    23 1   
    38    22    24 1   
    39    22    30 1   
    40    24    25 1   
    41    24    49 1   
    42    24    50 1   
    43    25    26 1   
    44    25    27 1   
    45    25    51 1   
    46    26    52 1   
    47    27    28 1   
    48    27    33 1   
    49    27    53 1   
    50    28    29 1   
    51    28    54 1   
    52    29    34 1   
    53    29    36 1   
    54    29    55 1   
    55    30    31 1   
    56    30    32 1   
    57    33    56 1   
    58    34    35 1   
    59    34    57 1   
    60    34    58 1   
    61    35    59 1   
    62    36    60 1   
@<TRIPOS>SUBSTRUCTURE
     1 CMK         1 TEMP              0 ****  ****    0 ROOT
