@<TRIPOS>MOLECULE
CML
   23    22     1     0     0
SMALL
No Charge or Current Charge


@<TRIPOS>ATOM
      1 O5          31.0270    -3.4760    26.6680 o          1 CML      -0.763000
      2 C4          31.8240    -2.5570    26.7840 c          1 CML       0.725000
      3 O4          31.9070    -1.8710    27.7930 o          1 CML      -0.763000
      4 C3          32.8220    -2.3110    25.6310 c3         1 CML      -0.177400
      5 C2          32.2540    -1.3260    24.5650 c3         1 CML      -0.006700
      6 C1          30.8980    -1.8280    23.9430 c          1 CML       0.764000
      7 O1          29.8360    -1.3710    24.3530 o          1 CML      -0.757000
      8 O2          30.9580    -2.5600    22.9620 o          1 CML      -0.757000
      9 SG          32.2200     0.4450    25.1850 ss         1 CML      -0.407000
     10 CB          34.0340     0.8560    25.1610 c3         1 CML       0.063600
     11 CA          34.3020     2.3790    25.3080 c3         1 CML       0.039500
     12 C           33.8140     3.1550    24.0090 c          1 CML       0.708000
     13 O           34.4200     2.9700    22.9610 o          1 CML      -0.761500
     14 N           33.8040     2.8890    26.6390 n8         1 CML      -0.983200
     15 OXT         32.9350     4.0030    24.1190 o          1 CML      -0.761500
     16 H31         32.9930    -3.2450    25.0810 hc         1 CML      -0.001300
     17 H32         33.7480    -1.8610    26.0070 hc         1 CML      -0.001300
     18 H2          32.9740    -1.3190    23.7360 h1         1 CML       0.002700
     19 HB1         34.5310     0.3180    25.9780 h1         1 CML       0.043700
     20 HB2         34.4650     0.5040    24.2150 h1         1 CML       0.043700
     21 HA          35.3930     2.5110    25.3350 h1         1 CML       0.001700
     22 H1          33.8610     3.9140    26.6300 hn         1 CML       0.372500
     23 HN2         32.7930     2.7130    26.6700 hn         1 CML       0.372500
@<TRIPOS>BOND
     1     1     2 1   
     2     2     3 1   
     3     2     4 1   
     4     4     5 1   
     5     4    16 1   
     6     4    17 1   
     7     5     6 1   
     8     5     9 1   
     9     5    18 1   
    10     6     7 1   
    11     6     8 1   
    12     9    10 1   
    13    10    11 1   
    14    10    19 1   
    15    10    20 1   
    16    11    12 1   
    17    11    14 1   
    18    11    21 1   
    19    12    13 1   
    20    12    15 1   
    21    14    22 1   
    22    14    23 1   
@<TRIPOS>SUBSTRUCTURE
     1 CML         1 TEMP              0 ****  ****    0 ROOT
