@<TRIPOS>MOLECULE
CML
   23    22     1     0     0
SMALL
abcg2


@<TRIPOS>ATOM
      1 O5          31.0020    -2.3640    26.8710 o          1 CML      -0.763000
      2 C4          32.2220    -2.1050    26.8210 c          1 CML       0.725000
      3 O4          32.9480    -1.7760    27.7830 o          1 CML      -0.763000
      4 C3          32.8990    -2.2250    25.4440 c3         1 CML      -0.177400
      5 C2          32.2830    -1.3420    24.3620 c3         1 CML      -0.006700
      6 C1          30.8860    -1.8030    23.8830 c          1 CML       0.764000
      7 O1          29.9770    -0.9520    23.8810 o          1 CML      -0.757000
      8 O2          30.8150    -2.9830    23.4920 o          1 CML      -0.757000
      9 SG          32.1790     0.4130    24.8410 ss         1 CML      -0.407000
     10 CB          33.9310     0.7620    25.2010 c3         1 CML       0.063600
     11 CA          34.1480     2.2550    25.4340 c3         1 CML       0.039500
     12 C           33.7890     3.0690    24.1610 c          1 CML       0.708000
     13 O           34.4320     2.7710    23.1330 o          1 CML      -0.761500
     14 N           33.4970     2.6650    26.6700 n8         1 CML      -0.983200
     15 OXT         32.9150     3.9500    24.2660 o          1 CML      -0.761500
     16 H31         32.8240    -3.2580    25.0890 hc         1 CML      -0.001300
     17 H32         33.9660    -2.0100    25.5300 hc         1 CML      -0.001300
     18 H2          32.9450    -1.3880    23.4880 h1         1 CML       0.002700
     19 HB1         34.2400     0.2040    26.0860 h1         1 CML       0.043700
     20 HB2         34.5380     0.4300    24.3580 h1         1 CML       0.043700
     21 HA          35.2280     2.3750    25.5880 h1         1 CML       0.001700
     22 H1          33.6540     3.6570    26.7980 hn         1 CML       0.372500
     23 HN2         32.4920     2.5880    26.5530 hn         1 CML       0.372500
@<TRIPOS>BOND
     1     1     2 1   
     2     2     3 1   
     3     2     4 1   
     4     4     5 1   
     5     4    16 1   
     6     4    17 1   
     7     5     6 1   
     8     5     9 1   
     9     5    18 1   
    10     6     7 1   
    11     6     8 1   
    12     9    10 1   
    13    10    11 1   
    14    10    19 1   
    15    10    20 1   
    16    11    12 1   
    17    11    14 1   
    18    11    21 1   
    19    12    13 1   
    20    12    15 1   
    21    14    22 1   
    22    14    23 1   
@<TRIPOS>SUBSTRUCTURE
     1 CML         1 TEMP              0 ****  ****    0 ROOT
