@<TRIPOS>MOLECULE
CMM
   75    78     1     0     0
SMALL
bcc


@<TRIPOS>ATOM
      1 O13         -3.2670    -3.3970    -5.1060 o          1 CMM      -0.806800
      2 C11         -4.0600    -2.4420    -5.1770 c          1 CMM       0.866600
      3 O12         -5.2980    -2.4600    -5.1410 o          1 CMM      -0.806800
      4 C10         -3.4220    -1.0480    -5.3700 c          1 CMM       0.460300
      5 O14         -3.9210    -0.2570    -6.1550 o          1 CMM      -0.572100
      6 C7          -2.2330    -0.7000    -4.6090 cc         1 CMM      -0.197400
      7 C8          -1.5800    -1.4790    -3.6770 cd         1 CMM      -0.056100
      8 C3          -1.5450     0.5680    -4.6250 ca         1 CMM      -0.063800
      9 C4          -0.5040     0.4770    -3.6830 ca         1 CMM      -0.073200
     10 N9          -0.5670    -0.7800    -3.1270 na         1 CMM      -0.194400
     11 C2          -1.6980     1.7610    -5.3410 ca         1 CMM      -0.057000
     12 C1          -0.8170     2.7960    -5.0930 ca         1 CMM      -0.179000
     13 C6           0.2080     2.6750    -4.1420 ca         1 CMM      -0.122000
     14 C5           0.3900     1.5140    -3.4100 ca         1 CMM      -0.113300
     15 C15          1.4220     1.3840    -2.3290 c3         1 CMM      -0.015100
     16 C16          0.8060     1.6550    -0.9460 c3         1 CMM      -0.038100
     17 C17          1.6670     1.2140     0.2030 ca         1 CMM      -0.058300
     18 C18          2.2290     2.1230     1.0890 ca         1 CMM      -0.122000
     19 C19          2.9450     1.6900     2.1990 ca         1 CMM      -0.122000
     20 C22          1.8840    -0.1440     0.4330 ca         1 CMM      -0.122000
     21 C21          2.6040    -0.5780     1.5300 ca         1 CMM      -0.122000
     22 C20          3.1260     0.3350     2.4460 ca         1 CMM      -0.102300
     23 C23          3.7780    -0.1430     3.7140 c3         1 CMM      -0.037100
     24 C24          2.7500    -0.8610     4.6110 c3         1 CMM       0.062700
     25 C25          3.4340    -1.3230     5.8880 c          1 CMM       0.627100
     26 O26          3.1270    -0.5870     6.9370 os         1 CMM      -0.404900
     27 C27          3.7620    -0.9100     8.1760 c3         1 CMM       0.125700
     28 O28          4.2070    -2.2480     5.9080 o          1 CMM      -0.541000
     29 N29          1.6110    -0.0180     4.8300 ns         1 CMM      -0.564900
     30 C30          0.3920    -0.5070     5.1310 c          1 CMM       0.674100
     31 O38          0.2030    -1.6960     5.3410 o          1 CMM      -0.591100
     32 C31         -0.7240     0.5090     5.1360 c3         1 CMM      -0.148400
     33 C32         -1.6230     0.3790     3.9010 c6         1 CMM      -0.087700
     34 C33         -0.8240     0.5630     2.6100 c6         1 CMM       0.216800
     35 C37         -2.7460     1.4140     3.9650 c6         1 CMM      -0.071400
     36 C36         -3.5810     1.4330     2.6890 c6         1 CMM      -0.107400
     37 C35         -2.6850     1.5850     1.4640 c6         1 CMM       0.215800
     38 N34         -1.6670     0.5490     1.4330 nh         1 CMM      -0.750600
     39 C39         -1.8660    -0.6450     0.7820 c2         1 CMM       0.793100
     40 N41         -1.3200    -1.7250     1.2060 n2         1 CMM      -0.906100
     41 N40         -2.6960    -0.5680    -0.3240 nv         1 CMM      -0.954800
     42 H8          -1.7690    -2.4970    -3.3800 h4         1 CMM       0.196000
     43 H9           0.0830    -1.1620    -2.4590 hn         1 CMM       0.284700
     44 H2          -2.4830     1.8700    -6.0750 ha         1 CMM       0.158000
     45 H1          -0.9160     3.7240    -5.6400 ha         1 CMM       0.117000
     46 H6           0.8750     3.5120    -3.9710 ha         1 CMM       0.111000
     47 H151         2.2420     2.0830    -2.5040 hc         1 CMM       0.040700
     48 H152         1.8690     0.3850    -2.3480 hc         1 CMM       0.040700
     49 H161        -0.1560     1.1440    -0.8630 hc         1 CMM       0.054700
     50 H162         0.5860     2.7210    -0.8600 hc         1 CMM       0.054700
     51 H18          2.0820     3.1860     0.9310 ha         1 CMM       0.131000
     52 H19          3.3470     2.4200     2.8930 ha         1 CMM       0.128500
     53 H22          1.4460    -0.8810    -0.2320 ha         1 CMM       0.131000
     54 H21          2.7340    -1.6420     1.6940 ha         1 CMM       0.128500
     55 H231         4.2130     0.7030     4.2520 hc         1 CMM       0.060700
     56 H232         4.5900    -0.8400     3.5030 hc         1 CMM       0.060700
     57 H24          2.4260    -1.7680     4.0940 h1         1 CMM       0.107700
     58 H271         3.3770    -0.1990     8.9020 h1         1 CMM       0.046033
     59 H272         3.5180    -1.9220     8.4960 h1         1 CMM       0.046033
     60 H273         4.8450    -0.8050     8.1050 h1         1 CMM       0.046033
     61 H29          1.7130     0.9730     4.6830 hn         1 CMM       0.320500
     62 H311        -1.3250     0.3600     6.0370 hc         1 CMM       0.054700
     63 H312        -0.3280     1.5280     5.1850 hc         1 CMM       0.054700
     64 H32         -2.0590    -0.6260     3.8880 hc         1 CMM       0.089700
     65 H331        -0.3050     1.5290     2.6360 h1         1 CMM       0.061200
     66 H332        -0.0640    -0.2060     2.4980 h1         1 CMM       0.061200
     67 H371        -3.3830     1.2300     4.8350 hc         1 CMM       0.033200
     68 H372        -2.3020     2.4060     4.1100 hc         1 CMM       0.033200
     69 H361        -4.1610     0.5090     2.6000 hc         1 CMM       0.052200
     70 H362        -4.3000     2.2550     2.7210 hc         1 CMM       0.052200
     71 H351        -3.2810     1.5820     0.5550 h1         1 CMM       0.053700
     72 H352        -2.1760     2.5540     1.4990 h1         1 CMM       0.053700
     73 H41         -1.4630    -2.4780     0.5430 hn         1 CMM       0.380400
     74 H401        -2.7120    -1.4000    -0.8920 hn         1 CMM       0.409800
     75 H402        -2.6340     0.2650    -0.8900 hn         1 CMM       0.409800
@<TRIPOS>BOND
     1     1     2 1   
     2     2     3 1   
     3     2     4 1   
     4     4     5 2   
     5     4     6 1   
     6     6     7 2   
     7     6     8 1   
     8     7    10 1   
     9     7    42 1   
    10     8     9 ar  
    11     8    11 ar  
    12     9    10 1   
    13     9    14 ar  
    14    10    43 1   
    15    11    12 ar  
    16    11    44 1   
    17    12    13 ar  
    18    12    45 1   
    19    13    14 ar  
    20    13    46 1   
    21    14    15 1   
    22    15    16 1   
    23    15    47 1   
    24    15    48 1   
    25    16    17 1   
    26    16    49 1   
    27    16    50 1   
    28    17    18 ar  
    29    17    20 ar  
    30    18    19 ar  
    31    18    51 1   
    32    19    22 ar  
    33    19    52 1   
    34    20    21 ar  
    35    20    53 1   
    36    21    22 ar  
    37    21    54 1   
    38    22    23 1   
    39    23    24 1   
    40    23    55 1   
    41    23    56 1   
    42    24    25 1   
    43    24    29 1   
    44    24    57 1   
    45    25    26 1   
    46    25    28 2   
    47    26    27 1   
    48    27    58 1   
    49    27    59 1   
    50    27    60 1   
    51    29    30 1   
    52    29    61 1   
    53    30    31 2   
    54    30    32 1   
    55    32    33 1   
    56    32    62 1   
    57    32    63 1   
    58    33    34 1   
    59    33    35 1   
    60    33    64 1   
    61    34    38 1   
    62    34    65 1   
    63    34    66 1   
    64    35    36 1   
    65    35    67 1   
    66    35    68 1   
    67    36    37 1   
    68    36    69 1   
    69    36    70 1   
    70    37    38 1   
    71    37    71 1   
    72    37    72 1   
    73    38    39 1   
    74    39    40 2   
    75    39    41 1   
    76    40    73 1   
    77    41    74 1   
    78    41    75 1   
@<TRIPOS>SUBSTRUCTURE
     1 CMM         1 TEMP              0 ****  ****    0 ROOT
