@<TRIPOS>MOLECULE
CMM
   75    78     1     0     0
SMALL
No Charge or Current Charge


@<TRIPOS>ATOM
      1 O13         -1.5120    -2.8510    -8.1100 o          1 CMM      -0.701500
      2 C11         -2.5270    -2.3010    -7.6850 c          1 CMM       0.656000
      3 O12         -3.6270    -2.8510    -7.6620 o          1 CMM      -0.701500
      4 C10         -2.4130    -0.7790    -7.1440 c          1 CMM       0.460300
      5 O14         -3.0190     0.1400    -7.7040 o          1 CMM      -0.572100
      6 C7          -1.5550    -0.5430    -5.9450 cc         1 CMM      -0.197400
      7 C8          -0.8500    -1.5310    -5.2600 cd         1 CMM      -0.106100
      8 C3          -1.2890     0.7010    -5.2680 ca         1 CMM      -0.063800
      9 C4          -0.4490     0.4200    -4.2230 ca         1 CMM      -0.073200
     10 N9          -0.1550    -0.9350    -4.1800 na         1 CMM      -0.244700
     11 C2          -1.7380     2.0060    -5.5250 ca         1 CMM      -0.039000
     12 C1          -1.2990     3.0370    -4.6680 ca         1 CMM      -0.161000
     13 C6          -0.4340     2.7490    -3.5890 ca         1 CMM      -0.104000
     14 C5           0.0060     1.4270    -3.3510 ca         1 CMM      -0.113300
     15 C15          0.9330     1.1200    -2.1800 c3         1 CMM      -0.015100
     16 C16          0.1540     0.6730    -0.9260 c3         1 CMM      -0.038100
     17 C17          1.0690     0.3450     0.2470 ca         1 CMM      -0.058300
     18 C18          1.7310     1.3780     0.9360 ca         1 CMM      -0.104000
     19 C19          2.5660     1.0820     2.0270 ca         1 CMM      -0.104000
     20 C22          1.2530    -0.9880     0.6600 ca         1 CMM      -0.104000
     21 C21          2.0870    -1.2840     1.7520 ca         1 CMM      -0.104000
     22 C20          2.7480    -0.2510     2.4420 ca         1 CMM      -0.102300
     23 C23          3.6330    -0.5700     3.6440 c3         1 CMM      -0.037100
     24 C24          2.8160    -0.9950     4.8900 c3         1 CMM       0.062700
     25 C25          3.7040    -1.1860     6.1450 c          1 CMM       0.578100
     26 O26          4.3380    -0.0250     6.5190 os         1 CMM      -0.428100
     27 C27          5.1900    -0.0600     7.6780 c3         1 CMM       0.148900
     28 O28          3.8130    -2.2500     6.7420 o          1 CMM      -0.492000
     29 N29          1.7290    -0.0280     5.1640 ns         1 CMM      -0.497900
     30 C30          0.4430    -0.3710     5.5070 c          1 CMM       0.607100
     31 O38          0.1200    -1.5220     5.7620 o          1 CMM      -0.591100
     32 C31         -0.5420     0.8020     5.5780 c3         1 CMM      -0.148400
     33 C32         -1.6510     0.7530     4.4790 c6         1 CMM      -0.087700
     34 C33         -1.0690     0.6300     3.0350 c6         1 CMM       0.216800
     35 C37         -2.5890     1.9880     4.5830 c6         1 CMM      -0.071400
     36 C36         -3.6510     1.9750     3.4570 c6         1 CMM      -0.107400
     37 C35         -2.9790     1.8420     2.0690 c6         1 CMM       0.215800
     38 N34         -2.1550     0.6050     2.0130 nh         1 CMM      -0.750600
     39 C39         -2.7340    -0.5650     1.6540 c2         1 CMM       0.793100
     40 N41         -2.7380    -1.5960     2.3600 n2         1 CMM      -0.906100
     41 N40         -3.1040    -0.5720     0.3930 nv         1 CMM      -1.065200
     42 H8          -0.7860    -2.6000    -5.4570 h4         1 CMM       0.246000
     43 H9           0.4450    -1.4060    -3.5100 hn         1 CMM       0.335000
     44 H2          -2.4040     2.2250    -6.3550 ha         1 CMM       0.140000
     45 H1          -1.6300     4.0580    -4.8390 ha         1 CMM       0.099000
     46 H6          -0.1090     3.5550    -2.9350 ha         1 CMM       0.093000
     47 H151         1.5320     2.0060    -1.9340 hc         1 CMM       0.040700
     48 H152         1.6520     0.3380    -2.4550 hc         1 CMM       0.040700
     49 H161        -0.4640    -0.1950    -1.1820 hc         1 CMM       0.054700
     50 H162        -0.5430     1.4690    -0.6370 hc         1 CMM       0.054700
     51 H18          1.5940     2.4120     0.6310 ha         1 CMM       0.113000
     52 H19          3.0660     1.8930     2.5510 ha         1 CMM       0.110500
     53 H22          0.7450    -1.7970     0.1400 ha         1 CMM       0.113000
     54 H21          2.2150    -2.3190     2.0630 ha         1 CMM       0.110500
     55 H231         4.2490     0.3030     3.8940 hc         1 CMM       0.060700
     56 H232         4.3370    -1.3720     3.3890 hc         1 CMM       0.060700
     57 H24          2.3680    -1.9740     4.6780 h1         1 CMM       0.107700
     58 H271         5.6280     0.9290     7.8580 h1         1 CMM       0.046033
     59 H272         4.6220    -0.3490     8.5720 h1         1 CMM       0.046033
     60 H273         6.0100    -0.7760     7.5390 h1         1 CMM       0.046033
     61 H29          1.9120     0.9560     5.0020 hn         1 CMM       0.320500
     62 H311        -1.0210     0.7750     6.5640 hc         1 CMM       0.054700
     63 H312         0.0120     1.7450     5.4900 hc         1 CMM       0.054700
     64 H32         -2.2440    -0.1480     4.6840 hc         1 CMM       0.089700
     65 H331        -0.4140     1.4950     2.8510 h1         1 CMM       0.061200
     66 H332        -0.4360    -0.2660     2.9450 h1         1 CMM       0.061200
     67 H371        -3.0860     2.0060     5.5630 hc         1 CMM       0.033200
     68 H372        -1.9980     2.9120     4.5140 hc         1 CMM       0.033200
     69 H361        -4.3500     1.1420     3.6110 hc         1 CMM       0.052200
     70 H362        -4.2470     2.8960     3.4940 hc         1 CMM       0.052200
     71 H351        -3.7460     1.8520     1.2800 h1         1 CMM       0.053700
     72 H352        -2.3400     2.7220     1.9040 h1         1 CMM       0.053700
     73 H41         -3.2020    -2.3270     1.8150 hn         1 CMM       0.380400
     74 H401        -2.8310    -1.4210    -0.0770 hn         1 CMM       0.465000
     75 H402        -2.7550     0.2610    -0.0520 hn         1 CMM       0.465000
@<TRIPOS>BOND
     1     1     2 1   
     2     2     3 1   
     3     2     4 1   
     4     4     5 2   
     5     4     6 1   
     6     6     7 2   
     7     6     8 1   
     8     7    10 1   
     9     7    42 1   
    10     8     9 ar  
    11     8    11 ar  
    12     9    10 1   
    13     9    14 ar  
    14    10    43 1   
    15    11    12 ar  
    16    11    44 1   
    17    12    13 ar  
    18    12    45 1   
    19    13    14 ar  
    20    13    46 1   
    21    14    15 1   
    22    15    16 1   
    23    15    47 1   
    24    15    48 1   
    25    16    17 1   
    26    16    49 1   
    27    16    50 1   
    28    17    18 ar  
    29    17    20 ar  
    30    18    19 ar  
    31    18    51 1   
    32    19    22 ar  
    33    19    52 1   
    34    20    21 ar  
    35    20    53 1   
    36    21    22 ar  
    37    21    54 1   
    38    22    23 1   
    39    23    24 1   
    40    23    55 1   
    41    23    56 1   
    42    24    25 1   
    43    24    29 1   
    44    24    57 1   
    45    25    26 1   
    46    25    28 2   
    47    26    27 1   
    48    27    58 1   
    49    27    59 1   
    50    27    60 1   
    51    29    30 1   
    52    29    61 1   
    53    30    31 2   
    54    30    32 1   
    55    32    33 1   
    56    32    62 1   
    57    32    63 1   
    58    33    34 1   
    59    33    35 1   
    60    33    64 1   
    61    34    38 1   
    62    34    65 1   
    63    34    66 1   
    64    35    36 1   
    65    35    67 1   
    66    35    68 1   
    67    36    37 1   
    68    36    69 1   
    69    36    70 1   
    70    37    38 1   
    71    37    71 1   
    72    37    72 1   
    73    38    39 1   
    74    39    40 2   
    75    39    41 1   
    76    40    73 1   
    77    41    74 1   
    78    41    75 1   
@<TRIPOS>SUBSTRUCTURE
     1 CMM         1 TEMP              0 ****  ****    0 ROOT
