@<TRIPOS>MOLECULE
CMN
   25    25     1     0     0
SMALL
abcg2


@<TRIPOS>ATOM
      1 C1          -1.6150     0.1260    -0.6450 c6         1 CMN       0.157700
      2 C2          -0.4120     0.5750    -1.4780 c6         1 CMN       0.184300
      3 C3           0.8210    -0.1940    -1.0450 c6         1 CMN       0.179300
      4 C4           1.1610     0.1880     0.3920 c6         1 CMN       0.168500
      5 C5          -0.0450     0.1520     1.3000 c2         1 CMN      -0.133400
      6 C6           0.2680     0.1830     2.7670 c3         1 CMN       0.202800
      7 C7          -1.2850     0.1510     0.8190 c2         1 CMN      -0.183200
      8 N1          -2.0240    -1.2240    -1.0270 n8         1 CMN      -0.983200
      9 O2          -0.6200     0.3730    -2.8560 oh         1 CMN      -0.690000
     10 O3           1.8910     0.1120    -1.9070 oh         1 CMN      -0.646000
     11 O4           2.1820    -0.6910     0.8360 oh         1 CMN      -0.721000
     12 O6          -0.8950     0.3860     3.5250 oh         1 CMN      -0.660000
     13 H1          -2.4200     0.8590    -0.8140 h1         1 CMN       0.020700
     14 H2          -0.2460     1.6440    -1.2670 h1         1 CMN       0.034700
     15 H3           0.5890    -1.2680    -1.0710 h1         1 CMN       0.084700
     16 H4           1.5420     1.2200     0.3810 h1         1 CMN       0.043700
     17 H62          0.7640    -0.7570     3.0400 h1         1 CMN       0.027200
     18 H61          1.0090     0.9790     2.9450 h1         1 CMN       0.027200
     19 H7          -2.1300     0.1520     1.4990 ha         1 CMN       0.195000
     20 H12         -2.7810    -1.5250    -0.4250 hn         1 CMN       0.399000
     21 H11         -2.4090    -1.2060    -1.9630 hn         1 CMN       0.399000
     22 H2O1        -1.3330     0.9550    -3.1360 ho         1 CMN       0.494000
     23 H3O1         2.6630    -0.3660    -1.5870 ho         1 CMN       0.449000
     24 H4O1         2.8280    -0.1940     1.3440 ho         1 CMN       0.503000
     25 H6          -0.6650     0.2880     4.4530 ho         1 CMN       0.448000
@<TRIPOS>BOND
     1     1     2 1   
     2     1     7 1   
     3     1     8 1   
     4     1    13 1   
     5     2     3 1   
     6     2     9 1   
     7     2    14 1   
     8     3     4 1   
     9     3    10 1   
    10     3    15 1   
    11     4     5 1   
    12     4    11 1   
    13     4    16 1   
    14     5     6 1   
    15     5     7 2   
    16     6    12 1   
    17     6    17 1   
    18     6    18 1   
    19     7    19 1   
    20     8    20 1   
    21     8    21 1   
    22     9    22 1   
    23    10    23 1   
    24    11    24 1   
    25    12    25 1   
@<TRIPOS>SUBSTRUCTURE
     1 CMN         1 TEMP              0 ****  ****    0 ROOT
