@<TRIPOS>MOLECULE
CMN
   25    25     1     0     0
SMALL
No Charge or Current Charge


@<TRIPOS>ATOM
      1 C1          -1.6470     0.0120    -0.6240 c6         1 CMN       0.157700
      2 C2          -0.4830     0.5780    -1.5140 c6         1 CMN       0.184300
      3 C3           0.8550    -0.1210    -1.1080 c6         1 CMN       0.179300
      4 C4           1.1940     0.1860     0.3880 c6         1 CMN       0.168500
      5 C5          -0.0160     0.0320     1.3240 c2         1 CMN      -0.133400
      6 C6           0.2810     0.0430     2.8200 c3         1 CMN       0.202800
      7 C7          -1.2770    -0.0370     0.8460 c2         1 CMN      -0.183200
      8 N1          -2.0860    -1.3350    -1.0530 n8         1 CMN      -0.983200
      9 O2          -0.7890     0.3950    -2.9210 oh         1 CMN      -0.690000
     10 O3           1.9690     0.2870    -1.9360 oh         1 CMN      -0.646000
     11 O4           2.2940    -0.6480     0.8010 oh         1 CMN      -0.721000
     12 O6          -0.5630     0.9900     3.4860 oh         1 CMN      -0.660000
     13 H1          -2.5150     0.6760    -0.7470 h1         1 CMN       0.020700
     14 H2          -0.3780     1.6510    -1.2950 h1         1 CMN       0.034700
     15 H3           0.7010    -1.2070    -1.2000 h1         1 CMN       0.084700
     16 H4           1.5000     1.2430     0.4390 h1         1 CMN       0.043700
     17 H62          0.1130    -0.9640     3.2260 h1         1 CMN       0.027200
     18 H61          1.3310     0.3010     3.0060 h1         1 CMN       0.027200
     19 H7          -2.1190    -0.1140     1.5350 ha         1 CMN       0.195000
     20 H12         -3.0320    -1.5080    -0.6940 hn         1 CMN       0.399000
     21 H11         -2.2070    -1.3090    -2.0720 hn         1 CMN       0.399000
     22 H2O1        -1.4220     1.1080    -3.1660 ho         1 CMN       0.494000
     23 H3O1         2.7640    -0.0720    -1.4830 ho         1 CMN       0.449000
     24 H4O1         2.7110    -0.2140     1.5800 ho         1 CMN       0.503000
     25 H6          -0.3410     0.9430     4.4430 ho         1 CMN       0.448000
@<TRIPOS>BOND
     1     1     2 1   
     2     1     7 1   
     3     1     8 1   
     4     1    13 1   
     5     2     3 1   
     6     2     9 1   
     7     2    14 1   
     8     3     4 1   
     9     3    10 1   
    10     3    15 1   
    11     4     5 1   
    12     4    11 1   
    13     4    16 1   
    14     5     6 1   
    15     5     7 2   
    16     6    12 1   
    17     6    17 1   
    18     6    18 1   
    19     7    19 1   
    20     8    20 1   
    21     8    21 1   
    22     9    22 1   
    23    10    23 1   
    24    11    24 1   
    25    12    25 1   
@<TRIPOS>SUBSTRUCTURE
     1 CMN         1 TEMP              0 ****  ****    0 ROOT
