@<TRIPOS>MOLECULE
CMQ
   63    64     1     0     0
SMALL
No Charge or Current Charge


@<TRIPOS>ATOM
      1 O2           1.8150     0.6610     2.4970 o          1 CMQ      -0.556000
      2 C1           1.9150     0.4380     1.3010 c          1 CMQ       0.646100
      3 O1           2.8960    -0.2880     0.7020 os         1 CMQ      -0.453100
      4 C2           3.9100    -0.8540     1.5460 c3         1 CMQ       0.232900
      5 C3           4.8660    -1.6580     0.6740 ca         1 CMQ      -0.102300
      6 C4           6.1400    -1.1500     0.3510 ca         1 CMQ      -0.083500
      7 C5           7.0180    -1.8970    -0.4530 ca         1 CMQ      -0.118000
      8 C6           6.6280    -3.1560    -0.9410 ca         1 CMQ      -0.098000
      9 C7           5.3570    -3.6660    -0.6250 ca         1 CMQ      -0.118000
     10 C8           4.4790    -2.9200     0.1800 ca         1 CMQ      -0.083500
     11 N1           1.0230     0.8350     0.3500 ns         1 CMQ      -0.495900
     12 C9          -0.2240     1.5820     0.6120 c3         1 CMQ       0.052700
     13 C11          0.0860     3.0990     0.7430 c3         1 CMQ      -0.083400
     14 C12         -1.1170     4.0160     1.1010 c3         1 CMQ      -0.060700
     15 C13         -1.7620     3.6580     2.4620 c3         1 CMQ      -0.089100
     16 C14         -0.7000     5.5040     1.0720 c3         1 CMQ      -0.089100
     17 C10         -1.2450     1.2680    -0.5190 c          1 CMQ       0.583100
     18 O3          -0.9040     1.0160    -1.6690 o          1 CMQ      -0.602100
     19 N2          -2.5680     1.2470    -0.1250 ns         1 CMQ      -0.494900
     20 C15         -3.6830     0.7370    -0.9360 c3         1 CMQ       0.076700
     21 C16         -4.9380     1.6560    -0.8330 c3         1 CMQ       0.160300
     22 O4          -5.3180     1.8290     0.5420 oh         1 CMQ      -0.660000
     23 C24         -4.7100     3.0510    -1.4510 c3         1 CMQ      -0.126100
     24 C17         -3.9880    -0.7390    -0.5590 c3         1 CMQ      -0.039100
     25 C18         -2.7530    -1.6370    -0.6050 ca         1 CMQ      -0.122300
     26 C19         -2.3060    -2.1680    -1.8300 ca         1 CMQ      -0.062500
     27 C21         -1.1500    -2.9680    -1.8770 ca         1 CMQ      -0.171500
     28 C23         -0.4340    -3.2360    -0.7000 ca         1 CMQ       0.138100
     29 O5           0.6880    -4.0080    -0.7380 oh         1 CMQ      -0.541100
     30 C22         -0.8730    -2.7110     0.5240 ca         1 CMQ      -0.171500
     31 C20         -2.0310    -1.9150     0.5740 ca         1 CMQ      -0.062500
     32 H21A         4.4610    -0.0650     2.0760 h1         1 CMQ       0.055700
     33 H22A         3.4640    -1.5180     2.2990 h1         1 CMQ       0.055700
     34 H4           6.4510    -0.1750     0.7230 ha         1 CMQ       0.119500
     35 H5           8.0010    -1.5010    -0.6990 ha         1 CMQ       0.113000
     36 H6           7.3070    -3.7340    -1.5640 ha         1 CMQ       0.112000
     37 H7           5.0530    -4.6400    -1.0030 ha         1 CMQ       0.113000
     38 H8           3.4950    -3.3200     0.4180 ha         1 CMQ       0.119500
     39 HN1          1.2230     0.5400    -0.5980 hn         1 CMQ       0.342500
     40 H9          -0.6480     1.2090     1.5530 h1         1 CMQ       0.085700
     41 H111         0.5220     3.4420    -0.2040 hc         1 CMQ       0.057700
     42 H112         0.8640     3.2350     1.5050 hc         1 CMQ       0.057700
     43 H12         -1.8830     3.8930     0.3260 hc         1 CMQ       0.051700
     44 H131        -2.5870     4.3440     2.6890 hc         1 CMQ       0.034200
     45 H132        -2.1720     2.6420     2.4580 hc         1 CMQ       0.034200
     46 H133        -1.0260     3.7290     3.2720 hc         1 CMQ       0.034200
     47 H141         0.0670     5.7110     1.8280 hc         1 CMQ       0.034200
     48 H142        -0.2960     5.7760     0.0890 hc         1 CMQ       0.034200
     49 H143        -1.5620     6.1530     1.2710 hc         1 CMQ       0.034200
     50 HN2         -2.7720     1.5020     0.8330 hn         1 CMQ       0.313500
     51 H15         -3.3720     0.7390    -1.9900 h1         1 CMQ       0.087700
     52 H16         -5.7540     1.1750    -1.3920 h1         1 CMQ       0.072700
     53 HO4         -6.1260     2.3860     0.5510 ho         1 CMQ       0.441000
     54 H241        -4.4000     2.9600    -2.4990 hc         1 CMQ       0.047033
     55 H242        -5.6330     3.6430    -1.4220 hc         1 CMQ       0.047033
     56 H243        -3.9320     3.6030    -0.9100 hc         1 CMQ       0.047033
     57 H171        -4.4300    -0.7700     0.4440 hc         1 CMQ       0.058200
     58 H172        -4.7570    -1.1280    -1.2380 hc         1 CMQ       0.058200
     59 H19         -2.8500    -1.9540    -2.7480 ha         1 CMQ       0.113500
     60 H21         -0.8160    -3.3690    -2.8310 ha         1 CMQ       0.121500
     61 HO5          0.8370    -4.2900    -1.6660 ho         1 CMQ       0.464000
     62 H22         -0.3170    -2.9170     1.4340 ha         1 CMQ       0.121500
     63 H20         -2.3610    -1.5060     1.5270 ha         1 CMQ       0.113500
@<TRIPOS>BOND
     1     1     2 2   
     2     2     3 1   
     3     2    11 1   
     4     3     4 1   
     5     4     5 1   
     6     4    32 1   
     7     4    33 1   
     8     5     6 ar  
     9     5    10 ar  
    10     6     7 ar  
    11     6    34 1   
    12     7     8 ar  
    13     7    35 1   
    14     8     9 ar  
    15     8    36 1   
    16     9    10 ar  
    17     9    37 1   
    18    10    38 1   
    19    11    12 1   
    20    11    39 1   
    21    12    13 1   
    22    12    17 1   
    23    12    40 1   
    24    13    14 1   
    25    13    41 1   
    26    13    42 1   
    27    14    15 1   
    28    14    16 1   
    29    14    43 1   
    30    15    44 1   
    31    15    45 1   
    32    15    46 1   
    33    16    47 1   
    34    16    48 1   
    35    16    49 1   
    36    17    18 2   
    37    17    19 1   
    38    19    20 1   
    39    19    50 1   
    40    20    21 1   
    41    20    24 1   
    42    20    51 1   
    43    21    22 1   
    44    21    23 1   
    45    21    52 1   
    46    22    53 1   
    47    23    54 1   
    48    23    55 1   
    49    23    56 1   
    50    24    25 1   
    51    24    57 1   
    52    24    58 1   
    53    25    26 ar  
    54    25    31 ar  
    55    26    27 ar  
    56    26    59 1   
    57    27    28 ar  
    58    27    60 1   
    59    28    29 1   
    60    28    30 ar  
    61    29    61 1   
    62    30    31 ar  
    63    30    62 1   
    64    31    63 1   
@<TRIPOS>SUBSTRUCTURE
     1 CMQ         1 TEMP              0 ****  ****    0 ROOT
