@<TRIPOS>MOLECULE
CMQ
   63    64     1     0     0
SMALL
bcc


@<TRIPOS>ATOM
      1 O2           0.9150    -0.1970     2.2430 o          1 CMQ      -0.605000
      2 C1           1.4090     0.1060     1.1770 c          1 CMQ       0.762100
      3 O1           2.4830    -0.4950     0.6520 os         1 CMQ      -0.429900
      4 C2           3.1020    -1.5240     1.4310 c3         1 CMQ       0.209700
      5 C3           4.3340    -1.9490     0.6920 ca         1 CMQ      -0.102300
      6 C4           5.5360    -1.2730     0.8840 ca         1 CMQ      -0.101500
      7 C5           6.6750    -1.6470     0.1850 ca         1 CMQ      -0.136000
      8 C6           6.6220    -2.7040    -0.7150 ca         1 CMQ      -0.116000
      9 C7           5.4260    -3.3830    -0.9120 ca         1 CMQ      -0.136000
     10 C8           4.2880    -3.0050    -0.2130 ca         1 CMQ      -0.101500
     11 N1           0.9840     1.0950     0.3680 ns         1 CMQ      -0.562900
     12 C9          -0.1920     1.8910     0.6300 c3         1 CMQ       0.052700
     13 C11          0.1470     3.3790     0.5340 c3         1 CMQ      -0.083400
     14 C12         -1.0280     4.3340     0.7410 c3         1 CMQ      -0.060700
     15 C13         -1.6970     4.1550     2.1010 c3         1 CMQ      -0.089100
     16 C14         -0.5520     5.7730     0.5640 c3         1 CMQ      -0.089100
     17 C10         -1.2660     1.5170    -0.3910 c          1 CMQ       0.650100
     18 O3          -1.0440     1.6230    -1.5870 o          1 CMQ      -0.602100
     19 N2          -2.4310     1.0960     0.1280 ns         1 CMQ      -0.561900
     20 C15         -3.5310     0.5630    -0.6500 c3         1 CMQ       0.076700
     21 C16         -4.7960     1.4150    -0.4820 c3         1 CMQ       0.137100
     22 O4          -5.2350     1.4380     0.8620 oh         1 CMQ      -0.597800
     23 C24         -4.6190     2.8150    -1.0450 c3         1 CMQ      -0.126100
     24 C17         -3.7710    -0.9060    -0.2840 c3         1 CMQ      -0.039100
     25 C18         -2.5550    -1.7580    -0.5120 ca         1 CMQ      -0.122300
     26 C19         -2.2760    -2.2870    -1.7690 ca         1 CMQ      -0.080500
     27 C21         -1.1410    -3.0500    -2.0010 ca         1 CMQ      -0.189500
     28 C23         -0.2480    -3.2980    -0.9620 ca         1 CMQ       0.138100
     29 O5           0.8650    -4.0460    -1.1200 oh         1 CMQ      -0.502100
     30 C22         -0.5060    -2.7710     0.3000 ca         1 CMQ      -0.189500
     31 C20         -1.6460    -2.0120     0.5110 ca         1 CMQ      -0.080500
     32 H21A         3.3570    -1.1430     2.4220 h1         1 CMQ       0.055700
     33 H22A         2.4160    -2.3630     1.5580 h1         1 CMQ       0.055700
     34 H4           5.5830    -0.4500     1.5870 ha         1 CMQ       0.137500
     35 H5           7.6050    -1.1160     0.3440 ha         1 CMQ       0.131000
     36 H6           7.5100    -2.9990    -1.2600 ha         1 CMQ       0.130000
     37 H7           5.3800    -4.2090    -1.6110 ha         1 CMQ       0.131000
     38 H8           3.3560    -3.5350    -0.3710 ha         1 CMQ       0.137500
     39 HN1          1.4510     1.2320    -0.5150 hn         1 CMQ       0.342500
     40 H9          -0.5250     1.6560     1.6410 h1         1 CMQ       0.085700
     41 H111         0.5930     3.5730    -0.4460 hc         1 CMQ       0.057700
     42 H112         0.9200     3.5890     1.2790 hc         1 CMQ       0.057700
     43 H12         -1.7750     4.1420    -0.0380 hc         1 CMQ       0.051700
     44 H131        -2.4910     4.8910     2.2410 hc         1 CMQ       0.034200
     45 H132        -2.1520     3.1710     2.2200 hc         1 CMQ       0.034200
     46 H133        -0.9760     4.2850     2.9110 hc         1 CMQ       0.034200
     47 H141         0.2050     6.0300     1.3090 hc         1 CMQ       0.034200
     48 H142        -0.1140     5.9280    -0.4230 hc         1 CMQ       0.034200
     49 H143        -1.3790     6.4760     0.6760 hc         1 CMQ       0.034200
     50 HN2         -2.4630     0.9410     1.1240 hn         1 CMQ       0.313500
     51 H15         -3.2380     0.6170    -1.7000 h1         1 CMQ       0.087700
     52 H16         -5.5880     0.9110    -1.0450 h1         1 CMQ       0.072700
     53 HO4         -4.7280     2.1030     1.3390 ho         1 CMQ       0.402000
     54 H241        -4.3130     2.7750    -2.0910 hc         1 CMQ       0.047033
     55 H242        -5.5490     3.3800    -0.9860 hc         1 CMQ       0.047033
     56 H243        -3.8520     3.3700    -0.5000 hc         1 CMQ       0.047033
     57 H171        -4.0890    -0.9750     0.7590 hc         1 CMQ       0.058200
     58 H172        -4.6060    -1.2720    -0.8880 hc         1 CMQ       0.058200
     59 H19         -2.9610    -2.1070    -2.5890 ha         1 CMQ       0.131500
     60 H21         -0.9560    -3.4550    -2.9900 ha         1 CMQ       0.139500
     61 HO5          0.9450    -4.3400    -2.0340 ho         1 CMQ       0.425000
     62 H22          0.1790    -2.9610     1.1160 ha         1 CMQ       0.139500
     63 H20         -1.8310    -1.6190     1.5040 ha         1 CMQ       0.131500
@<TRIPOS>BOND
     1     1     2 2   
     2     2     3 1   
     3     2    11 1   
     4     3     4 1   
     5     4     5 1   
     6     4    32 1   
     7     4    33 1   
     8     5     6 ar  
     9     5    10 ar  
    10     6     7 ar  
    11     6    34 1   
    12     7     8 ar  
    13     7    35 1   
    14     8     9 ar  
    15     8    36 1   
    16     9    10 ar  
    17     9    37 1   
    18    10    38 1   
    19    11    12 1   
    20    11    39 1   
    21    12    13 1   
    22    12    17 1   
    23    12    40 1   
    24    13    14 1   
    25    13    41 1   
    26    13    42 1   
    27    14    15 1   
    28    14    16 1   
    29    14    43 1   
    30    15    44 1   
    31    15    45 1   
    32    15    46 1   
    33    16    47 1   
    34    16    48 1   
    35    16    49 1   
    36    17    18 2   
    37    17    19 1   
    38    19    20 1   
    39    19    50 1   
    40    20    21 1   
    41    20    24 1   
    42    20    51 1   
    43    21    22 1   
    44    21    23 1   
    45    21    52 1   
    46    22    53 1   
    47    23    54 1   
    48    23    55 1   
    49    23    56 1   
    50    24    25 1   
    51    24    57 1   
    52    24    58 1   
    53    25    26 ar  
    54    25    31 ar  
    55    26    27 ar  
    56    26    59 1   
    57    27    28 ar  
    58    27    60 1   
    59    28    29 1   
    60    28    30 ar  
    61    29    61 1   
    62    30    31 ar  
    63    30    62 1   
    64    31    63 1   
@<TRIPOS>SUBSTRUCTURE
     1 CMQ         1 TEMP              0 ****  ****    0 ROOT
