@<TRIPOS>MOLECULE
CMS
   16    15     1     0     0
SMALL
No Charge or Current Charge


@<TRIPOS>ATOM
      1 C1          -0.3020    -0.3180     1.4890 c          1 CMS       0.640100
      2 C2           2.0670     0.2920     0.9750 c3         1 CMS       0.103300
      3 C3           0.2160     1.0350    -0.6070 c3         1 CMS      -0.061000
      4 C4          -0.3030     0.1410    -1.7620 c          1 CMS       0.696000
      5 N1          -1.5900    -0.3020     1.1000 nt         1 CMS      -0.572000
      6 N3           0.6290     0.3040     0.6330 n          1 CMS      -0.375800
      7 O1          -1.5130     0.0280    -1.8970 o          1 CMS      -0.729000
      8 O2           0.5140    -0.4200    -2.4770 o          1 CMS      -0.729000
      9 O3           0.0100    -0.8520     2.5390 o          1 CMS      -0.706100
     10 H21          2.2480     0.9630     1.8240 h1         1 CMS       0.028367
     11 H22          2.3770    -0.7260     1.2460 h1         1 CMS       0.028367
     12 H23          2.6710     0.6240     0.1210 h1         1 CMS       0.028367
     13 H31         -0.5700     1.7560    -0.3480 h1         1 CMS       0.035700
     14 H32          1.0640     1.6160    -0.9910 h1         1 CMS       0.035700
     15 HN11        -2.2870    -0.7430     1.6790 hn         1 CMS       0.287500
     16 HN12        -1.8310     0.0820     0.1970 hn         1 CMS       0.287500
@<TRIPOS>BOND
     1     1     5 1   
     2     1     6 1   
     3     1     9 2   
     4     2     6 1   
     5     2    10 1   
     6     2    11 1   
     7     2    12 1   
     8     3     4 1   
     9     3     6 1   
    10     3    13 1   
    11     3    14 1   
    12     4     7 1   
    13     4     8 1   
    14     5    15 1   
    15     5    16 1   
@<TRIPOS>SUBSTRUCTURE
     1 CMS         1 TEMP              0 ****  ****    0 ROOT
