@<TRIPOS>MOLECULE
CMS
   16    15     1     0     0
SMALL
bcc


@<TRIPOS>ATOM
      1 C1          -0.4000     0.0110     1.5390 c          1 CMS       0.774100
      2 C2           1.9340     0.0520     0.9090 c3         1 CMS       0.103300
      3 C3           0.2740     1.0040    -0.6110 c3         1 CMS      -0.061000
      4 C4          -0.0180    -0.0380    -1.7170 c          1 CMS       0.906600
      5 N1          -1.7000     0.2290     1.1440 nt         1 CMS      -0.639000
      6 N3           0.5650     0.4560     0.6930 n          1 CMS      -0.442800
      7 O1          -0.3110    -1.1890    -1.3480 o          1 CMS      -0.834300
      8 O2           0.0350     0.3980    -2.8820 o          1 CMS      -0.834300
      9 O3          -0.1450    -0.4850     2.6350 o          1 CMS      -0.706100
     10 H21          2.1120    -0.1690     1.9570 h1         1 CMS       0.028367
     11 H22          2.1940    -0.8320     0.3190 h1         1 CMS       0.028367
     12 H23          2.6040     0.8610     0.6140 h1         1 CMS       0.028367
     13 H31         -0.5760     1.6900    -0.5440 h1         1 CMS       0.035700
     14 H32          1.1220     1.6220    -0.9110 h1         1 CMS       0.035700
     15 HN11        -2.3740    -0.2050     1.7540 hn         1 CMS       0.287500
     16 HN12        -1.9170     0.0750     0.1720 hn         1 CMS       0.287500
@<TRIPOS>BOND
     1     1     5 1   
     2     1     6 1   
     3     1     9 2   
     4     2     6 1   
     5     2    10 1   
     6     2    11 1   
     7     2    12 1   
     8     3     4 1   
     9     3     6 1   
    10     3    13 1   
    11     3    14 1   
    12     4     7 1   
    13     4     8 1   
    14     5    15 1   
    15     5    16 1   
@<TRIPOS>SUBSTRUCTURE
     1 CMS         1 TEMP              0 ****  ****    0 ROOT
