@<TRIPOS>MOLECULE
CMT
   17    16     1     0     0
SMALL
No Charge or Current Charge


@<TRIPOS>ATOM
      1 N           64.6680    17.9200    40.6560 n8         1 CMT      -0.881800
      2 CA          64.0860    19.3070    40.6080 c3         1 CMT       0.126500
      3 C           64.6210    20.2980    41.7000 c          1 CMT       0.640100
      4 O           65.8080    20.8790    41.3230 os         1 CMT      -0.381900
      5 CB          62.5390    19.2210    40.6260 c3         1 CMT       0.001700
      6 SG          61.8190    18.1600    39.2770 sh         1 CMT      -0.427900
      7 OXT         64.0360    20.5530    42.7490 o          1 CMT      -0.549000
      8 C1          66.4190    21.8230    42.2210 c3         1 CMT       0.122700
      9 H           64.1730    17.3450    39.9650 hn         1 CMT       0.361300
     10 H2          64.4300    17.4830    41.5530 hn         1 CMT       0.361300
     11 HA          64.3750    19.7500    39.6440 h1         1 CMT       0.092700
     12 HB2         62.2060    18.8220    41.5940 h1         1 CMT       0.079700
     13 HB3         62.1230    20.2320    40.5240 h1         1 CMT       0.079700
     14 HG          60.5170    18.3370    39.6170 hs         1 CMT       0.228800
     15 H11         66.6500    21.3530    43.1860 h1         1 CMT       0.049033
     16 H12         67.3560    22.2030    41.7950 h1         1 CMT       0.049033
     17 H13         65.7550    22.6790    42.4000 h1         1 CMT       0.049033
@<TRIPOS>BOND
     1     1     2 1   
     2     1     9 1   
     3     1    10 1   
     4     2     3 1   
     5     2     5 1   
     6     2    11 1   
     7     3     4 1   
     8     3     7 2   
     9     4     8 1   
    10     5     6 1   
    11     5    12 1   
    12     5    13 1   
    13     6    14 1   
    14     8    15 1   
    15     8    16 1   
    16     8    17 1   
@<TRIPOS>SUBSTRUCTURE
     1 CMT         1 TEMP              0 ****  ****    0 ROOT
