@<TRIPOS>MOLECULE
CMT
   17    16     1     0     0
SMALL
bcc


@<TRIPOS>ATOM
      1 N           64.8300    18.2730    40.4780 n8         1 CMT      -0.881800
      2 CA          63.9670    19.4320    40.5300 c3         1 CMT       0.126500
      3 C           64.4960    20.4780    41.5070 c          1 CMT       0.640100
      4 O           65.8120    20.5790    41.4820 os         1 CMT      -0.381900
      5 CB          62.4970    19.1480    40.8470 c3         1 CMT       0.001700
      6 SG          61.8670    17.9310    39.6400 sh         1 CMT      -0.427900
      7 OXT         63.7870    21.1680    42.1970 o          1 CMT      -0.549000
      8 C1          66.4060    21.5750    42.3150 c3         1 CMT       0.122700
      9 H           64.6530    17.7330    39.6420 hn         1 CMT       0.361300
     10 H2          64.6640    17.6630    41.2700 hn         1 CMT       0.361300
     11 HA          64.0080    19.9100    39.5430 h1         1 CMT       0.092700
     12 HB2         62.3920    18.7490    41.8570 h1         1 CMT       0.079700
     13 HB3         61.8990    20.0530    40.7710 h1         1 CMT       0.079700
     14 HG          60.5680    18.2030    39.7960 hs         1 CMT       0.228800
     15 H11         66.1860    21.3980    43.3670 h1         1 CMT       0.049033
     16 H12         67.4770    21.4980    42.1530 h1         1 CMT       0.049033
     17 H13         66.0710    22.5760    42.0420 h1         1 CMT       0.049033
@<TRIPOS>BOND
     1     1     2 1   
     2     1     9 1   
     3     1    10 1   
     4     2     3 1   
     5     2     5 1   
     6     2    11 1   
     7     3     4 1   
     8     3     7 2   
     9     4     8 1   
    10     5     6 1   
    11     5    12 1   
    12     5    13 1   
    13     6    14 1   
    14     8    15 1   
    15     8    16 1   
    16     8    17 1   
@<TRIPOS>SUBSTRUCTURE
     1 CMT         1 TEMP              0 ****  ****    0 ROOT
