@<TRIPOS>MOLECULE
CMU
   27    28     1     0     0
SMALL
abcg2


@<TRIPOS>ATOM
      1 CL1          3.9610     4.1340    -0.3580 cl         1 CMU      -0.115000
      2 C2           2.7400     5.1630     0.2640 cc         1 CMU      -0.090200
      3 C3           1.4380     5.0130    -0.0590 cd         1 CMU       0.076400
      4 C4           0.9070     3.9250    -0.9580 c3         1 CMU       0.268000
      5 N5           1.1660     2.6240    -0.4280 nh         1 CMU      -0.817600
      6 C6           0.5110     2.2020     0.7970 c5         1 CMU       0.219800
      7 C7           1.1940     0.8730     1.1010 c5         1 CMU      -0.091400
      8 C8           1.5550     0.3480    -0.2850 c5         1 CMU      -0.124700
      9 C9           1.7490     1.5930    -1.1150 c2         1 CMU       0.638200
     10 N10          2.3410     1.5900    -2.2420 n2         1 CMU      -0.822100
     11 N11          0.5160     5.8790     0.4480 ns         1 CMU      -0.517600
     12 C12          0.8060     6.9300     1.2790 c          1 CMU       0.621000
     13 O13         -0.0380     7.6870     1.7040 o          1 CMU      -0.543000
     14 N14          2.1380     7.0370     1.5850 ns         1 CMU      -0.468500
     15 C15          3.1720     6.2340     1.1420 c          1 CMU       0.594200
     16 O16          4.3190     6.4400     1.4770 o          1 CMU      -0.497000
     17 H4C1         1.3680     4.0380    -1.9400 h1         1 CMU       0.061700
     18 H4C2        -0.1680     4.0760    -1.1060 h1         1 CMU       0.061700
     19 H6C1        -0.5680     2.0840     0.6420 h1         1 CMU       0.041700
     20 H6C2         0.6540     2.9360     1.5920 h1         1 CMU       0.041700
     21 H7C1         0.5520     0.2000     1.6650 hc         1 CMU       0.061700
     22 H7C2         2.0970     1.0470     1.6880 hc         1 CMU       0.061700
     23 H8C1         0.7310    -0.2260    -0.7160 hc         1 CMU       0.074700
     24 H8C2         2.4400    -0.2850    -0.3050 hc         1 CMU       0.074700
     25 H10          2.3700     2.5070    -2.6760 hn         1 CMU       0.378400
     26 HN1         -0.4560     5.7630     0.1960 hn         1 CMU       0.462000
     27 HN2          2.3910     7.8060     2.1950 hn         1 CMU       0.348500
@<TRIPOS>BOND
     1     1     2 1   
     2     2     3 2   
     3     2    15 1   
     4     3     4 1   
     5     3    11 1   
     6     4     5 1   
     7     4    17 1   
     8     4    18 1   
     9     5     6 1   
    10     5     9 1   
    11     6     7 1   
    12     6    19 1   
    13     6    20 1   
    14     7     8 1   
    15     7    21 1   
    16     7    22 1   
    17     8     9 1   
    18     8    23 1   
    19     8    24 1   
    20     9    10 2   
    21    10    25 1   
    22    11    12 1   
    23    11    26 1   
    24    12    13 2   
    25    12    14 1   
    26    14    15 1   
    27    14    27 1   
    28    15    16 2   
@<TRIPOS>SUBSTRUCTURE
     1 CMU         1 TEMP              0 ****  ****    0 ROOT
