@<TRIPOS>MOLECULE
CMU
   27    28     1     0     0
SMALL
No Charge or Current Charge


@<TRIPOS>ATOM
      1 Cl1          4.6300     5.1050    -0.0720 cl         1 CMU      -0.115000
      2 C2           3.0180     5.6160     0.3660 cc         1 CMU      -0.090200
      3 C3           1.8770     5.0120    -0.1230 cd         1 CMU       0.076400
      4 C4           1.8080     3.8400    -1.0900 c3         1 CMU       0.268000
      5 N5           1.3080     2.5700    -0.5010 nh         1 CMU      -0.817600
      6 C6           1.2310     2.3210     0.9640 c5         1 CMU       0.219800
      7 C7           1.4770     0.7920     1.0340 c5         1 CMU      -0.091400
      8 C8           0.7250     0.3220    -0.2370 c5         1 CMU      -0.124700
      9 C9           0.9740     1.4440    -1.2100 c2         1 CMU       0.638200
     10 N10          0.9250     1.4130    -2.4800 n2         1 CMU      -0.822100
     11 N11          0.6560     5.5010     0.3150 ns         1 CMU      -0.517600
     12 C12          0.4740     6.5320     1.1860 c          1 CMU       0.621000
     13 O13         -0.6260     6.9110     1.5330 o          1 CMU      -0.543000
     14 N14          1.6250     7.0960     1.6300 ns         1 CMU      -0.468500
     15 C15          2.9080     6.7500     1.3170 c          1 CMU       0.594200
     16 O16          3.8560     7.3480     1.8020 o          1 CMU      -0.497000
     17 H4C1         2.7990     3.6710    -1.5290 h1         1 CMU       0.061700
     18 H4C2         1.1500     4.1440    -1.9150 h1         1 CMU       0.061700
     19 H6C1         0.2310     2.5680     1.3450 h1         1 CMU       0.041700
     20 H6C2         1.9720     2.8900     1.5410 h1         1 CMU       0.041700
     21 H7C1         1.0970     0.3410     1.9570 hc         1 CMU       0.061700
     22 H7C2         2.5480     0.5680     0.9670 hc         1 CMU       0.061700
     23 H8C1        -0.3500     0.2100    -0.0600 hc         1 CMU       0.074700
     24 H8C2         1.1040    -0.6330    -0.6150 hc         1 CMU       0.074700
     25 H10          1.1590     2.3530    -2.8150 hn         1 CMU       0.378400
     26 HN1         -0.2080     5.0690     0.0020 hn         1 CMU       0.462000
     27 HN2          1.5190     7.8620     2.2750 hn         1 CMU       0.348500
@<TRIPOS>BOND
     1     1     2 1   
     2     2     3 2   
     3     2    15 1   
     4     3     4 1   
     5     3    11 1   
     6     4     5 1   
     7     4    17 1   
     8     4    18 1   
     9     5     6 1   
    10     5     9 1   
    11     6     7 1   
    12     6    19 1   
    13     6    20 1   
    14     7     8 1   
    15     7    21 1   
    16     7    22 1   
    17     8     9 1   
    18     8    23 1   
    19     8    24 1   
    20     9    10 2   
    21    10    25 1   
    22    11    12 1   
    23    11    26 1   
    24    12    13 2   
    25    12    14 1   
    26    14    15 1   
    27    14    27 1   
    28    15    16 2   
@<TRIPOS>SUBSTRUCTURE
     1 CMU         1 TEMP              0 ****  ****    0 ROOT
