@<TRIPOS>MOLECULE
CMV
   62    64     1     0     0
SMALL
bcc


@<TRIPOS>ATOM
      1 C1          -5.0890     1.9980    -0.4260 c3         1 CMV      -0.068600
      2 C2          -6.7390    -0.1120     0.7580 c          1 CMV       0.939600
      3 C6          -4.7380     0.5410    -0.7110 c5         1 CMV       0.090100
      4 C12         -5.2740    -0.4260     0.3780 c5         1 CMV       0.021500
      5 C13         -3.0230    -0.2570     1.1750 c5         1 CMV       0.304600
      6 C14         -2.2560    -1.5930     1.3060 c3         1 CMV      -0.005300
      7 C15         -2.9950    -2.7240     0.6450 c          1 CMV       0.589900
      8 C16         -5.1820     0.1420    -2.1110 c3         1 CMV      -0.068600
      9 N3          -4.4050    -0.3620     1.5330 n7         1 CMV      -0.803200
     10 S1          -2.9180     0.3190    -0.5780 ss         1 CMV      -0.520200
     11 O4          -2.5380    -3.4010    -0.2410 o          1 CMV      -0.541100
     12 N1          -0.9270    -1.4970     0.7690 ns         1 CMV      -0.540900
     13 CAL          0.0590    -0.8120     1.3630 c          1 CMV       0.684100
     14 OAV         -0.0450    -0.2860     2.4600 o          1 CMV      -0.622100
     15 CAM          1.3230    -0.6820     0.5200 c3         1 CMV       0.108800
     16 CAW          1.1030     0.3580    -0.5600 ca         1 CMV      -0.126300
     17 CBD          1.4360     0.0650    -1.8770 ca         1 CMV      -0.109000
     18 CBG          1.3020     1.0280    -2.8700 ca         1 CMV      -0.127500
     19 CBH          0.8290     2.2920    -2.5500 ca         1 CMV      -0.121000
     20 CBF          0.4860     2.5880    -1.2360 ca         1 CMV      -0.127500
     21 CBC          0.6230     1.6280    -0.2470 ca         1 CMV      -0.109000
     22 NAN          2.4350    -0.4150     1.4210 n7         1 CMV      -0.523200
     23 NAG          3.6390    -0.1760     0.7830 n          1 CMV      -0.357200
     24 CAE          4.4000    -1.2420     0.4770 c          1 CMV       0.645500
     25 OAS          4.1090    -2.3930     0.7320 o          1 CMV      -0.554500
     26 CAQ          4.0170     1.1710     0.3790 c6         1 CMV       0.072000
     27 CAU          5.5140     1.3150     0.4790 c6         1 CMV       0.090000
     28 NAO          6.1640     0.2910    -0.3180 n          1 CMV      -0.472800
     29 CAI          5.7080    -0.9690    -0.2920 c          1 CMV       0.625500
     30 OAT          6.2540    -1.9170    -0.8270 o          1 CMV      -0.590500
     31 CBB          7.4580     0.5950    -0.9090 c3         1 CMV       0.098000
     32 CBE          8.5860     0.5800     0.1110 c3         1 CMV      -0.117100
     33 H1          -6.1600     2.1700    -0.5470 hc         1 CMV       0.039533
     34 H1A         -4.8080     2.2990     0.5840 hc         1 CMV       0.039533
     35 H1B         -4.5690     2.6570    -1.1220 hc         1 CMV       0.039533
     36 H12         -5.2450    -1.4350    -0.0510 h1         1 CMV       0.059700
     37 H13         -2.5250     0.4600     1.8270 h2         1 CMV       0.074700
     38 H14         -2.2160    -1.8370     2.3750 h1         1 CMV       0.090700
     39 H15         -3.9970    -2.9090     1.0570 h4         1 CMV       0.032200
     40 H16         -4.7030     0.7610    -2.8710 hc         1 CMV       0.039533
     41 H16A        -4.9390    -0.9000    -2.3180 hc         1 CMV       0.039533
     42 H16B        -6.2600     0.2650    -2.2070 hc         1 CMV       0.039533
     43 HN3         -4.6990     0.4070     2.1220 hn         1 CMV       0.407800
     44 HN1         -0.7580    -1.9220    -0.1310 hn         1 CMV       0.341500
     45 HAM          1.5200    -1.6440     0.0370 h1         1 CMV       0.096700
     46 HBD          1.8080    -0.9200    -2.1300 ha         1 CMV       0.139000
     47 HBG          1.5680     0.7880    -3.8910 ha         1 CMV       0.130000
     48 HBH          0.7250     3.0440    -3.3210 ha         1 CMV       0.126000
     49 HBF          0.1090     3.5700    -0.9810 ha         1 CMV       0.130000
     50 HBC          0.3520     1.8760     0.7730 ha         1 CMV       0.139000
     51 HNAN         2.2390     0.3460     2.0600 hn         1 CMV       0.392800
     52 HAQ          3.6720     1.3960    -0.6330 h1         1 CMV       0.063200
     53 HAQA         3.5460     1.8780     1.0610 h1         1 CMV       0.063200
     54 HAU          5.8010     2.2900     0.0900 h1         1 CMV       0.053700
     55 HAUA         5.8340     1.2660     1.5240 h1         1 CMV       0.053700
     56 HBB          7.6520    -0.1230    -1.7020 h1         1 CMV       0.057700
     57 HBBA         7.3840     1.5780    -1.3780 h1         1 CMV       0.057700
     58 HBE          8.4340     1.3270     0.8900 hc         1 CMV       0.041367
     59 HBEA         8.6740    -0.3970     0.5860 hc         1 CMV       0.041367
     60 HBEB         9.5340     0.8030    -0.3790 hc         1 CMV       0.041367
     61 O1          -7.6030    -0.4940    -0.0520 o          1 CMV      -0.819300
     62 O2          -6.9250     0.5140     1.8190 o          1 CMV      -0.819300
@<TRIPOS>BOND
     1     1     3 1   
     2     1    33 1   
     3     1    34 1   
     4     1    35 1   
     5     2     4 1   
     6     2    61 1   
     7     2    62 1   
     8     3     4 1   
     9     3     8 1   
    10     3    10 1   
    11     4     9 1   
    12     4    36 1   
    13     5     6 1   
    14     5     9 1   
    15     5    10 1   
    16     5    37 1   
    17     6     7 1   
    18     6    12 1   
    19     6    38 1   
    20     7    11 2   
    21     7    39 1   
    22     8    40 1   
    23     8    41 1   
    24     8    42 1   
    25     9    43 1   
    26    12    13 1   
    27    12    44 1   
    28    13    14 2   
    29    13    15 1   
    30    15    16 1   
    31    15    22 1   
    32    15    45 1   
    33    16    17 ar  
    34    16    21 ar  
    35    17    18 ar  
    36    17    46 1   
    37    18    19 ar  
    38    18    47 1   
    39    19    20 ar  
    40    19    48 1   
    41    20    21 ar  
    42    20    49 1   
    43    21    50 1   
    44    22    23 1   
    45    22    51 1   
    46    23    24 1   
    47    23    26 1   
    48    24    25 2   
    49    24    29 1   
    50    26    27 1   
    51    26    52 1   
    52    26    53 1   
    53    27    28 1   
    54    27    54 1   
    55    27    55 1   
    56    28    29 1   
    57    28    31 1   
    58    29    30 2   
    59    31    32 1   
    60    31    56 1   
    61    31    57 1   
    62    32    58 1   
    63    32    59 1   
    64    32    60 1   
@<TRIPOS>SUBSTRUCTURE
     1 CMV         1 TEMP              0 ****  ****    0 ROOT
