@<TRIPOS>MOLECULE
CMV
   62    64     1     0     0
SMALL
No Charge or Current Charge


@<TRIPOS>ATOM
      1 C1          -5.6470     1.9520     0.0080 c3         1 CMV      -0.068600
      2 C2          -7.1310    -0.6120     0.8340 c          1 CMV       0.729000
      3 C6          -5.2700     0.5390    -0.5150 c5         1 CMV       0.138000
      4 C12         -5.5950    -0.6480     0.4440 c5         1 CMV       0.021500
      5 C13         -3.2470    -0.3130     1.0660 c5         1 CMV       0.352500
      6 C14         -2.3640    -1.5920     1.0420 c3         1 CMV      -0.005300
      7 C15         -3.0370    -2.7470     0.2770 c          1 CMV       0.589900
      8 C16         -5.8550     0.3500    -1.9360 c3         1 CMV      -0.068600
      9 N3          -4.6120    -0.5430     1.5930 n7         1 CMV      -0.858400
     10 S1          -3.4280     0.4380    -0.6270 ss         1 CMV      -0.616000
     11 O4          -2.5640    -3.2710    -0.7320 o          1 CMV      -0.541100
     12 N1          -0.9780    -1.3690     0.5440 ns         1 CMV      -0.473900
     13 CAL         -0.0290    -0.5870     1.1710 c          1 CMV       0.617100
     14 OAV         -0.2550    -0.0490     2.2510 o          1 CMV      -0.622100
     15 CAM          1.3270    -0.4430     0.4080 c3         1 CMV       0.108800
     16 CAW          1.2250     0.6410    -0.6690 ca         1 CMV      -0.126300
     17 CBD          1.4770     0.3220    -2.0190 ca         1 CMV      -0.091000
     18 CBG          1.3930     1.3140    -3.0110 ca         1 CMV      -0.109500
     19 CBH          1.0550     2.6320    -2.6630 ca         1 CMV      -0.103000
     20 CBF          0.8000     2.9570    -1.3200 ca         1 CMV      -0.109500
     21 CBC          0.8830     1.9670    -0.3270 ca         1 CMV      -0.091000
     22 NAN          2.4820    -0.1980     1.3250 n7         1 CMV      -0.578400
     23 NAG          3.8250    -0.2570     0.7510 n          1 CMV      -0.290200
     24 CAE          4.6930    -1.3780     0.9200 c          1 CMV       0.503000
     25 OAS          4.3330    -2.3770     1.5420 o          1 CMV      -0.479000
     26 CAQ          4.2900     0.9290    -0.0160 c6         1 CMV       0.072000
     27 CAU          5.7990     1.2030     0.1800 c6         1 CMV       0.090000
     28 NAO          6.6240     0.0030    -0.0950 n          1 CMV      -0.405800
     29 CAI          6.1530    -1.2850     0.2650 c          1 CMV       0.483000
     30 OAT          6.8380    -2.2900     0.0830 o          1 CMV      -0.515000
     31 CBB          7.9530     0.1910    -0.7190 c3         1 CMV       0.098000
     32 CBE          9.0240     0.6340     0.2920 c3         1 CMV      -0.117100
     33 H1          -6.7340     2.0850     0.0620 hc         1 CMV       0.039533
     34 H1A         -5.2380     2.1410     1.0070 hc         1 CMV       0.039533
     35 H1B         -5.2580     2.7340    -0.6550 hc         1 CMV       0.039533
     36 H12         -5.4400    -1.5930    -0.0900 h1         1 CMV       0.059700
     37 H13         -2.7360     0.4220     1.7040 h2         1 CMV       0.074700
     38 H14         -2.2900    -1.9380     2.0800 h1         1 CMV       0.090700
     39 H15         -3.9860    -3.1220     0.7200 h4         1 CMV       0.032200
     40 H16         -5.4930     1.1250    -2.6220 hc         1 CMV       0.039533
     41 H16A        -5.5710    -0.6220    -2.3570 hc         1 CMV       0.039533
     42 H16B        -6.9510     0.4010    -1.9280 hc         1 CMV       0.039533
     43 HN3         -4.8800     0.2790     2.1500 hn         1 CMV       0.463000
     44 HN1         -0.7280    -1.7550    -0.3610 hn         1 CMV       0.341500
     45 HAM          1.4840    -1.4090    -0.0910 h1         1 CMV       0.096700
     46 HBD          1.7440    -0.6940    -2.3030 ha         1 CMV       0.121000
     47 HBG          1.5920     1.0610    -4.0500 ha         1 CMV       0.112000
     48 HBH          0.9910     3.3990    -3.4310 ha         1 CMV       0.108000
     49 HBF          0.5360     3.9770    -1.0500 ha         1 CMV       0.112000
     50 HBC          0.6830     2.2340     0.7090 ha         1 CMV       0.121000
     51 HNAN         2.3440     0.6480     1.8990 hn         1 CMV       0.448000
     52 HAQ          4.0970     0.7570    -1.0840 h1         1 CMV       0.063200
     53 HAQA         3.7210     1.8200     0.2830 h1         1 CMV       0.063200
     54 HAU          6.1040     2.0290    -0.4780 h1         1 CMV       0.053700
     55 HAUA         5.9770     1.5240     1.2160 h1         1 CMV       0.053700
     56 HBB          8.2770    -0.7380    -1.2060 h1         1 CMV       0.057700
     57 HBBA         7.8700     0.9510    -1.5070 h1         1 CMV       0.057700
     58 HBE          8.7490     1.5870     0.7570 hc         1 CMV       0.041367
     59 HBEA         9.1420    -0.1180     1.0820 hc         1 CMV       0.041367
     60 HBEB         9.9910     0.7610    -0.2090 hc         1 CMV       0.041367
     61 O1          -7.9120    -1.3210     0.2140 o          1 CMV      -0.714000
     62 O2          -7.4870     0.0250     1.8190 o          1 CMV      -0.714000
@<TRIPOS>BOND
     1     1     3 1   
     2     1    33 1   
     3     1    34 1   
     4     1    35 1   
     5     2     4 1   
     6     2    61 1   
     7     2    62 1   
     8     3     4 1   
     9     3     8 1   
    10     3    10 1   
    11     4     9 1   
    12     4    36 1   
    13     5     6 1   
    14     5     9 1   
    15     5    10 1   
    16     5    37 1   
    17     6     7 1   
    18     6    12 1   
    19     6    38 1   
    20     7    11 2   
    21     7    39 1   
    22     8    40 1   
    23     8    41 1   
    24     8    42 1   
    25     9    43 1   
    26    12    13 1   
    27    12    44 1   
    28    13    14 2   
    29    13    15 1   
    30    15    16 1   
    31    15    22 1   
    32    15    45 1   
    33    16    17 ar  
    34    16    21 ar  
    35    17    18 ar  
    36    17    46 1   
    37    18    19 ar  
    38    18    47 1   
    39    19    20 ar  
    40    19    48 1   
    41    20    21 ar  
    42    20    49 1   
    43    21    50 1   
    44    22    23 1   
    45    22    51 1   
    46    23    24 1   
    47    23    26 1   
    48    24    25 2   
    49    24    29 1   
    50    26    27 1   
    51    26    52 1   
    52    26    53 1   
    53    27    28 1   
    54    27    54 1   
    55    27    55 1   
    56    28    29 1   
    57    28    31 1   
    58    29    30 2   
    59    31    32 1   
    60    31    56 1   
    61    31    57 1   
    62    32    58 1   
    63    32    59 1   
    64    32    60 1   
@<TRIPOS>SUBSTRUCTURE
     1 CMV         1 TEMP              0 ****  ****    0 ROOT
