@<TRIPOS>MOLECULE
CMW
   43    44     1     0     0
SMALL
No Charge or Current Charge


@<TRIPOS>ATOM
      1 O4         -15.3940    -0.4760    68.7620 o          1 CMW      -0.527000
      2 C6         -16.0280    -1.3640    68.2080 c          1 CMW       0.653100
      3 N2         -15.8250    -1.7260    66.8880 ns         1 CMW      -0.142000
      4 C5         -16.3160    -2.8160    66.1250 ca         1 CMW       0.030000
      5 C4         -16.4810    -2.6680    64.7400 ca         1 CMW      -0.212000
      6 C3         -16.9320    -3.7560    63.9760 ca         1 CMW       0.360900
      7 N1         -17.2040    -4.9670    64.5120 nb         1 CMW      -0.682000
      8 C2         -17.0240    -5.1190    65.8430 ca         1 CMW       0.360900
      9 C1         -16.5850    -4.0800    66.6790 ca         1 CMW      -0.212000
     10 O1         -17.0390    -2.0780    68.7950 os         1 CMW      -0.450100
     11 C7         -17.3540    -1.7940    70.1700 c3         1 CMW       0.183600
     12 C8         -18.6780    -2.4990    70.5110 c3         1 CMW      -0.095400
     13 C9         -18.6230    -4.0360    70.3720 c3         1 CMW       0.208800
     14 N3         -19.9110    -4.6480    70.7600 n7         1 CMW      -0.899300
     15 S          -20.9860    -5.1160    69.5670 sy         1 CMW       1.146600
     16 O3         -22.2860    -5.1900    70.2360 o          1 CMW      -0.546500
     17 O2         -20.3610    -6.2760    68.9300 o          1 CMW      -0.546500
     18 C10        -20.9800    -3.7110    68.4400 ca         1 CMW      -0.279500
     19 C16        -20.1330    -3.7110    67.3130 ca         1 CMW      -0.006500
     20 C15        -20.1070    -2.6020    66.4520 ca         1 CMW      -0.135000
     21 C13        -20.9290    -1.4870    66.7000 ca         1 CMW      -0.018300
     22 C14        -20.8930    -0.2880    65.7670 c3         1 CMW      -0.058800
     23 C12        -21.7890    -1.4980    67.8140 ca         1 CMW      -0.135000
     24 C11        -21.8180    -2.6040    68.6820 ca         1 CMW      -0.006500
     25 H2         -15.1680    -1.1370    66.3960 hn         1 CMW       0.173000
     26 H4         -16.2710    -1.7210    64.2510 ha         1 CMW       0.133000
     27 H1         -16.4390    -4.2790    67.7360 ha         1 CMW       0.133000
     28 H3         -17.0750    -3.6580    62.9000 h4         1 CMW       0.026100
     29 HA         -17.2370    -6.1070    66.2520 h4         1 CMW       0.026100
     30 H71C       -16.5540    -2.1440    70.8360 h1         1 CMW       0.057700
     31 H72C       -17.4840    -0.7140    70.3260 h1         1 CMW       0.057700
     32 H81C       -18.9510    -2.2470    71.5420 hc         1 CMW       0.067200
     33 H82C       -19.4600    -2.0820    69.8710 hc         1 CMW       0.067200
     34 H91C       -18.3230    -4.3230    69.3550 h1         1 CMW       0.058700
     35 H92C       -17.8330    -4.3930    71.0470 h1         1 CMW       0.058700
     36 HB         -19.7200    -5.5710    71.1480 hn         1 CMW       0.493000
     37 H16        -19.4910    -4.5630    67.1050 ha         1 CMW       0.134000
     38 H11        -22.4800    -2.5900    69.5460 ha         1 CMW       0.134000
     39 H15        -19.4450    -2.6090    65.5900 ha         1 CMW       0.119000
     40 H141       -21.1510     0.6380    66.2950 hc         1 CMW       0.050033
     41 H142       -19.8960    -0.1510    65.3320 hc         1 CMW       0.050033
     42 H143       -21.6040    -0.4140    64.9420 hc         1 CMW       0.050033
     43 H12        -22.4330    -0.6450    68.0130 ha         1 CMW       0.119000
@<TRIPOS>BOND
     1     1     2 2   
     2     2     3 1   
     3     2    10 1   
     4     3     4 1   
     5     3    25 1   
     6     4     5 ar  
     7     4     9 ar  
     8     5     6 ar  
     9     5    26 1   
    10     6     7 ar  
    11     6    28 1   
    12     7     8 ar  
    13     8     9 ar  
    14     8    29 1   
    15     9    27 1   
    16    10    11 1   
    17    11    12 1   
    18    11    30 1   
    19    11    31 1   
    20    12    13 1   
    21    12    32 1   
    22    12    33 1   
    23    13    14 1   
    24    13    34 1   
    25    13    35 1   
    26    14    15 1   
    27    14    36 1   
    28    15    16 2   
    29    15    17 2   
    30    15    18 1   
    31    18    19 ar  
    32    18    24 ar  
    33    19    20 ar  
    34    19    37 1   
    35    20    21 ar  
    36    20    39 1   
    37    21    22 1   
    38    21    23 ar  
    39    22    40 1   
    40    22    41 1   
    41    22    42 1   
    42    23    24 ar  
    43    23    43 1   
    44    24    38 1   
@<TRIPOS>SUBSTRUCTURE
     1 CMW         1 TEMP              0 ****  ****    0 ROOT
