@<TRIPOS>MOLECULE
CMW
   43    44     1     0     0
SMALL
abcg2


@<TRIPOS>ATOM
      1 O4         -14.5460    -1.2080    68.9170 o          1 CMW      -0.527000
      2 C6         -15.2530    -1.9660    68.2940 c          1 CMW       0.653100
      3 N2         -14.8230    -2.5770    67.1470 ns         1 CMW      -0.142000
      4 C5         -15.4290    -3.4650    66.2720 ca         1 CMW       0.030000
      5 C4         -14.6940    -3.8220    65.1370 ca         1 CMW      -0.212000
      6 C3         -15.2320    -4.7090    64.2280 ca         1 CMW       0.360900
      7 N1         -16.4320    -5.2670    64.3550 nb         1 CMW      -0.682000
      8 C2         -17.1230    -4.9280    65.4360 ca         1 CMW       0.360900
      9 C1         -16.6890    -4.0480    66.4150 ca         1 CMW      -0.212000
     10 O1         -16.4890    -2.2870    68.6240 os         1 CMW      -0.450100
     11 C7         -17.0440    -1.6940    69.8090 c3         1 CMW       0.183600
     12 C8         -18.4360    -2.2560    69.9820 c3         1 CMW      -0.095400
     13 C9         -18.4350    -3.7420    70.3210 c3         1 CMW       0.208800
     14 N3         -19.7860    -4.3000    70.3750 n7         1 CMW      -0.899300
     15 S          -20.5010    -4.8640    68.9990 sy         1 CMW       1.146600
     16 O3         -21.5850    -5.7270    69.4490 o          1 CMW      -0.546500
     17 O2         -19.5200    -5.4000    68.0620 o          1 CMW      -0.546500
     18 C10        -21.1890    -3.4110    68.2670 ca         1 CMW      -0.279500
     19 C16        -20.8100    -3.0280    66.9910 ca         1 CMW      -0.006500
     20 C15        -21.3770    -1.8920    66.4310 ca         1 CMW      -0.135000
     21 C13        -22.3200    -1.1400    67.1250 ca         1 CMW      -0.018300
     22 C14        -22.9440     0.0760    66.5100 c3         1 CMW      -0.058800
     23 C12        -22.6860    -1.5520    68.4090 ca         1 CMW      -0.135000
     24 C11        -22.1310    -2.6800    68.9830 ca         1 CMW      -0.006500
     25 H2         -13.8840    -2.3050    66.8940 hn         1 CMW       0.173000
     26 H4         -13.7070    -3.4100    64.9620 ha         1 CMW       0.133000
     27 H1         -17.3400    -3.8530    67.2490 ha         1 CMW       0.133000
     28 H3         -14.6580    -4.9820    63.3490 h4         1 CMW       0.026100
     29 HA         -18.1000    -5.3850    65.5500 h4         1 CMW       0.026100
     30 H71C       -16.4110    -1.9230    70.6690 h1         1 CMW       0.057700
     31 H72C       -17.0830    -0.6100    69.6930 h1         1 CMW       0.057700
     32 H81C       -18.9230    -1.7030    70.7870 hc         1 CMW       0.067200
     33 H82C       -19.0160    -2.0570    69.0790 hc         1 CMW       0.067200
     34 H91C       -17.8030    -4.3080    69.6330 h1         1 CMW       0.058700
     35 H92C       -18.0130    -3.8870    71.3150 h1         1 CMW       0.058700
     36 HB         -19.9430    -4.9460    71.1390 hn         1 CMW       0.493000
     37 H16        -20.0770    -3.5930    66.4330 ha         1 CMW       0.134000
     38 H11        -22.4200    -2.9740    69.9840 ha         1 CMW       0.134000
     39 H15        -21.0760    -1.5910    65.4360 ha         1 CMW       0.119000
     40 H141       -22.9940     0.9000    67.2210 hc         1 CMW       0.050033
     41 H142       -22.3890     0.4110    65.6360 hc         1 CMW       0.050033
     42 H143       -23.9660    -0.1370    66.1910 hc         1 CMW       0.050033
     43 H12        -23.4140    -0.9780    68.9700 ha         1 CMW       0.119000
@<TRIPOS>BOND
     1     1     2 2   
     2     2     3 1   
     3     2    10 1   
     4     3     4 1   
     5     3    25 1   
     6     4     5 ar  
     7     4     9 ar  
     8     5     6 ar  
     9     5    26 1   
    10     6     7 ar  
    11     6    28 1   
    12     7     8 ar  
    13     8     9 ar  
    14     8    29 1   
    15     9    27 1   
    16    10    11 1   
    17    11    12 1   
    18    11    30 1   
    19    11    31 1   
    20    12    13 1   
    21    12    32 1   
    22    12    33 1   
    23    13    14 1   
    24    13    34 1   
    25    13    35 1   
    26    14    15 1   
    27    14    36 1   
    28    15    16 2   
    29    15    17 2   
    30    15    18 1   
    31    18    19 ar  
    32    18    24 ar  
    33    19    20 ar  
    34    19    37 1   
    35    20    21 ar  
    36    20    39 1   
    37    21    22 1   
    38    21    23 ar  
    39    22    40 1   
    40    22    41 1   
    41    22    42 1   
    42    23    24 ar  
    43    23    43 1   
    44    24    38 1   
@<TRIPOS>SUBSTRUCTURE
     1 CMW         1 TEMP              0 ****  ****    0 ROOT
