@<TRIPOS>MOLECULE
CMY
   26    25     1     0     0
SMALL
bcc


@<TRIPOS>ATOM
      1 O1Y          0.9730     2.4300    -4.9320 o          1 CMY      -0.855300
      2 C1Y          1.7010     2.5990    -3.9280 c          1 CMY       1.001600
      3 N1Y          2.6250     1.5760    -3.6610 ns         1 CMY      -0.621900
      4 C2Y          3.2780     1.4580    -2.3810 c3         1 CMY       0.121000
      5 C3Y          2.3770     1.0410    -1.2190 c3         1 CMY      -0.110400
      6 C4Y          1.7450    -0.3340    -1.3970 c3         1 CMY      -0.071400
      7 C5Y          0.8540    -0.7360    -0.2270 c3         1 CMY      -0.075400
      8 C6Y          0.2250    -2.1130    -0.3970 c3         1 CMY      -0.079400
      9 C7Y         -0.6710    -2.5010     0.7680 c3         1 CMY       0.145800
     10 N2Y         -1.2360    -3.8300     0.5770 n8         1 CMY      -0.887800
     11 O1           1.7160     3.5940    -3.1710 o          1 CMY      -0.855300
     12 H1           2.4230     0.7050    -4.1250 hn         1 CMY       0.247500
     13 H2Y1         3.7540     2.4100    -2.1410 h1         1 CMY       0.019700
     14 H2Y2         4.0870     0.7280    -2.4830 h1         1 CMY       0.019700
     15 H3Y1         1.5960     1.7950    -1.0900 hc         1 CMY       0.037200
     16 H3Y2         2.9710     1.0470    -0.2990 hc         1 CMY       0.037200
     17 H4Y1         2.5330    -1.0850    -1.5250 hc         1 CMY       0.036200
     18 H4Y2         1.1520    -0.3510    -2.3170 hc         1 CMY       0.036200
     19 H5Y1         1.4410    -0.7170     0.6990 hc         1 CMY       0.031700
     20 H5Y2         0.0660     0.0140    -0.1020 hc         1 CMY       0.031700
     21 H6Y1         1.0090    -2.8680    -0.5110 hc         1 CMY       0.043200
     22 H6Y2        -0.3600    -2.1310    -1.3240 hc         1 CMY       0.043200
     23 H7Y1        -1.4310    -1.7180     0.9060 h1         1 CMY       0.023200
     24 H7Y2        -0.0760    -2.5130     1.6860 h1         1 CMY       0.023200
     25 H11         -1.8520    -3.8140    -0.2280 hn         1 CMY       0.328800
     26 H12         -1.8290    -4.0590     1.3640 hn         1 CMY       0.328800
@<TRIPOS>BOND
     1     1     2 1   
     2     2     3 1   
     3     2    11 1   
     4     3     4 1   
     5     3    12 1   
     6     4     5 1   
     7     4    13 1   
     8     4    14 1   
     9     5     6 1   
    10     5    15 1   
    11     5    16 1   
    12     6     7 1   
    13     6    17 1   
    14     6    18 1   
    15     7     8 1   
    16     7    19 1   
    17     7    20 1   
    18     8     9 1   
    19     8    21 1   
    20     8    22 1   
    21     9    10 1   
    22     9    23 1   
    23     9    24 1   
    24    10    25 1   
    25    10    26 1   
@<TRIPOS>SUBSTRUCTURE
     1 CMY         1 TEMP              0 ****  ****    0 ROOT
