@<TRIPOS>MOLECULE
CMY
   26    25     1     0     0
SMALL
No Charge or Current Charge


@<TRIPOS>ATOM
      1 O1Y          1.2490     2.6010    -5.1210 o          1 CMY      -0.750000
      2 C1Y          1.7890     2.6850    -4.0360 c          1 CMY       0.724000
      3 N1Y          2.5530     1.6190    -3.6570 ns         1 CMY      -0.554900
      4 C2Y          3.2700     1.4860    -2.3860 c3         1 CMY       0.121000
      5 C3Y          2.3610     1.0570    -1.2120 c3         1 CMY      -0.110400
      6 C4Y          1.7110    -0.3350    -1.3960 c3         1 CMY      -0.071400
      7 C5Y          0.8470    -0.7620    -0.1890 c3         1 CMY      -0.075400
      8 C6Y          0.1980    -2.1520    -0.3680 c3         1 CMY      -0.079400
      9 C7Y         -0.6630    -2.5710     0.8420 c3         1 CMY       0.145800
     10 N2Y         -1.2670    -3.9010     0.6430 n8         1 CMY      -0.998200
     11 O1           1.7040     3.6530    -3.3040 o          1 CMY      -0.750000
     12 H1           2.5900     0.8490    -4.3100 hn         1 CMY       0.247500
     13 H2Y1         3.7510     2.4430    -2.1460 h1         1 CMY       0.019700
     14 H2Y2         4.0650     0.7400    -2.5180 h1         1 CMY       0.019700
     15 H3Y1         1.5770     1.8090    -1.0660 hc         1 CMY       0.037200
     16 H3Y2         2.9630     1.0500    -0.2960 hc         1 CMY       0.037200
     17 H4Y1         2.5000    -1.0810    -1.5560 hc         1 CMY       0.036200
     18 H4Y2         1.0870    -0.3300    -2.2980 hc         1 CMY       0.036200
     19 H5Y1         1.4690    -0.7700     0.7150 hc         1 CMY       0.031700
     20 H5Y2         0.0590    -0.0150    -0.0290 hc         1 CMY       0.031700
     21 H6Y1         0.9870    -2.8990    -0.5260 hc         1 CMY       0.043200
     22 H6Y2        -0.4250    -2.1440    -1.2710 hc         1 CMY       0.043200
     23 H7Y1        -1.4680    -1.8390     0.9950 h1         1 CMY       0.023200
     24 H7Y2        -0.0410    -2.6000     1.7470 h1         1 CMY       0.023200
     25 H11         -1.9120    -3.8570    -0.1550 hn         1 CMY       0.384000
     26 H12         -1.8830    -4.1100     1.4390 hn         1 CMY       0.384000
@<TRIPOS>BOND
     1     1     2 1   
     2     2     3 1   
     3     2    11 1   
     4     3     4 1   
     5     3    12 1   
     6     4     5 1   
     7     4    13 1   
     8     4    14 1   
     9     5     6 1   
    10     5    15 1   
    11     5    16 1   
    12     6     7 1   
    13     6    17 1   
    14     6    18 1   
    15     7     8 1   
    16     7    19 1   
    17     7    20 1   
    18     8     9 1   
    19     8    21 1   
    20     8    22 1   
    21     9    10 1   
    22     9    23 1   
    23     9    24 1   
    24    10    25 1   
    25    10    26 1   
@<TRIPOS>SUBSTRUCTURE
     1 CMY         1 TEMP              0 ****  ****    0 ROOT
