@<TRIPOS>MOLECULE
CMZ
   42    43     1     0     0
SMALL
No Charge or Current Charge


@<TRIPOS>ATOM
      1 C1           5.8570     3.0520    -1.6860 c3         1 CMZ      -0.046800
      2 C2           6.0330     1.9200    -0.6850 ca         1 CMZ      -0.068300
      3 C3           7.2260     1.7990     0.0480 ca         1 CMZ      -0.114000
      4 C4           7.3890     0.7530     0.9700 ca         1 CMZ      -0.102000
      5 C5           6.3610    -0.1880     1.1700 ca         1 CMZ      -0.084300
      6 C6           6.5530    -1.3180     2.1760 c3         1 CMZ      -0.043800
      7 C7           5.1600    -0.0760     0.4350 ca         1 CMZ       0.103100
      8 O8           4.1680    -1.0150     0.6490 os         1 CMZ      -0.380100
      9 C9           2.8930    -0.9660    -0.0300 c3         1 CMZ       0.135600
     10 C10          2.0260    -2.1540     0.4660 c3         1 CMZ       0.174300
     11 O11          2.8210    -3.3550     0.4430 oh         1 CMZ      -0.657000
     12 C12          1.4650    -1.9260     1.9030 c3         1 CMZ       0.138800
     13 N13          0.5700    -0.7460     2.0770 n3         1 CMZ      -0.724600
     14 C14         -0.6980    -0.8160     1.2780 c6         1 CMZ       0.128800
     15 C15         -1.5930     0.4400     1.5010 c6         1 CMZ       0.152600
     16 O16         -1.8580     0.6280     2.9110 os         1 CMZ      -0.448000
     17 C17         -0.6470     0.7780     3.6900 c6         1 CMZ       0.152600
     18 C18          0.2650    -0.4730     3.5160 c6         1 CMZ       0.128800
     19 C19          5.0030     0.9810    -0.4920 ca         1 CMZ      -0.131000
     20 H11          6.1270     2.7240    -2.6970 hc         1 CMZ       0.042367
     21 H12          4.8190     3.4030    -1.7130 hc         1 CMZ       0.042367
     22 H13          6.4880     3.9130    -1.4340 hc         1 CMZ       0.042367
     23 H3           8.0310     2.5170    -0.0960 ha         1 CMZ       0.112000
     24 H4           8.3190     0.6750     1.5290 ha         1 CMZ       0.112000
     25 H61          7.5170    -1.2460     2.6930 hc         1 CMZ       0.045700
     26 H62          5.7670    -1.3000     2.9410 hc         1 CMZ       0.045700
     27 H63          6.5160    -2.2950     1.6800 hc         1 CMZ       0.045700
     28 H91          2.3750    -0.0190     0.1710 h1         1 CMZ       0.044700
     29 H92          3.0320    -1.0560    -1.1150 h1         1 CMZ       0.044700
     30 H10          1.1760    -2.2660    -0.2190 h1         1 CMZ       0.072700
     31 HO11         3.7360    -3.0520     0.6450 ho         1 CMZ       0.454000
     32 H121         0.9290    -2.8360     2.2080 h1         1 CMZ       0.045200
     33 H122         2.3250    -1.8270     2.5800 h1         1 CMZ       0.045200
     34 H141        -1.2740    -1.7120     1.5530 h1         1 CMZ       0.041700
     35 H142        -0.4780    -0.8900     0.2030 h1         1 CMZ       0.041700
     36 H151        -1.0900     1.3340     1.1050 h1         1 CMZ       0.050200
     37 H152        -2.5460     0.3200     0.9680 h1         1 CMZ       0.050200
     38 H171        -0.9130     0.9040     4.7490 h1         1 CMZ       0.050200
     39 H172        -0.1130     1.6810     3.3600 h1         1 CMZ       0.050200
     40 H181         1.1960    -0.3090     4.0790 h1         1 CMZ       0.041700
     41 H182        -0.2380    -1.3390     3.9710 h1         1 CMZ       0.041700
     42 H19          4.0890     1.0860    -1.0690 ha         1 CMZ       0.120000
@<TRIPOS>BOND
     1     1     2 1   
     2     1    20 1   
     3     1    21 1   
     4     1    22 1   
     5     2     3 ar  
     6     2    19 ar  
     7     3     4 ar  
     8     3    23 1   
     9     4     5 ar  
    10     4    24 1   
    11     5     6 1   
    12     5     7 ar  
    13     6    25 1   
    14     6    26 1   
    15     6    27 1   
    16     7     8 1   
    17     7    19 ar  
    18     8     9 1   
    19     9    10 1   
    20     9    28 1   
    21     9    29 1   
    22    10    11 1   
    23    10    12 1   
    24    10    30 1   
    25    11    31 1   
    26    12    13 1   
    27    12    32 1   
    28    12    33 1   
    29    13    14 1   
    30    13    18 1   
    31    14    15 1   
    32    14    34 1   
    33    14    35 1   
    34    15    16 1   
    35    15    36 1   
    36    15    37 1   
    37    16    17 1   
    38    17    18 1   
    39    17    38 1   
    40    17    39 1   
    41    18    40 1   
    42    18    41 1   
    43    19    42 1   
@<TRIPOS>SUBSTRUCTURE
     1 CMZ         1 TEMP              0 ****  ****    0 ROOT
