@<TRIPOS>MOLECULE
CMZ
   42    43     1     0     0
SMALL
abcg2


@<TRIPOS>ATOM
      1 C1           7.2500     1.7260    -2.2100 c3         1 CMZ      -0.046800
      2 C2           6.4960     1.3920    -0.9550 ca         1 CMZ      -0.068300
      3 C3           6.7630     2.0500     0.2420 ca         1 CMZ      -0.114000
      4 C4           6.0470     1.7490     1.3930 ca         1 CMZ      -0.102000
      5 C5           5.0390     0.7880     1.3980 ca         1 CMZ      -0.084300
      6 C6           4.2800     0.4510     2.6470 c3         1 CMZ      -0.043800
      7 C7           4.7820     0.1290     0.1950 ca         1 CMZ       0.103100
      8 O8           3.8280    -0.8470     0.1680 os         1 CMZ      -0.380100
      9 C9           2.5690    -0.4400    -0.3550 c3         1 CMZ       0.135600
     10 C10          1.6180    -1.6190    -0.2950 c3         1 CMZ       0.174300
     11 O11          2.0280    -2.6760    -1.1360 oh         1 CMZ      -0.657000
     12 C12          1.3950    -2.1310     1.1310 c3         1 CMZ       0.138800
     13 N13          0.9420    -1.1040     2.0420 n3         1 CMZ      -0.724600
     14 C14         -0.4350    -0.7060     1.8180 c6         1 CMZ       0.128800
     15 C15         -0.8080     0.4210     2.7610 c6         1 CMZ       0.152600
     16 O16         -0.6150     0.0590     4.1100 os         1 CMZ      -0.448000
     17 C17          0.7180    -0.3400     4.3400 c6         1 CMZ       0.152600
     18 C18          1.1250    -1.4830     3.4300 c6         1 CMZ       0.128800
     19 C19          5.4940     0.4270    -0.9590 ca         1 CMZ      -0.131000
     20 H11          7.2510     0.8930    -2.9120 hc         1 CMZ       0.042367
     21 H12          6.8000     2.5810    -2.7210 hc         1 CMZ       0.042367
     22 H13          8.2860     1.9890    -1.9980 hc         1 CMZ       0.042367
     23 H3           7.5410     2.8030     0.2810 ha         1 CMZ       0.112000
     24 H4           6.2770     2.2750     2.3120 ha         1 CMZ       0.112000
     25 H61          4.5580     1.1210     3.4590 hc         1 CMZ       0.045700
     26 H62          3.2000     0.5220     2.5050 hc         1 CMZ       0.045700
     27 H63          4.4850    -0.5700     2.9760 hc         1 CMZ       0.045700
     28 H91          2.1610     0.3950     0.2220 h1         1 CMZ       0.044700
     29 H92          2.6780    -0.1070    -1.3950 h1         1 CMZ       0.044700
     30 H10          0.6700    -1.2680    -0.7130 h1         1 CMZ       0.072700
     31 HO11         2.8990    -2.9710    -0.8490 ho         1 CMZ       0.454000
     32 H121         0.6970    -2.9850     1.0890 h1         1 CMZ       0.045200
     33 H122         2.3440    -2.5220     1.5090 h1         1 CMZ       0.045200
     34 H141        -1.1310    -1.5530     1.9540 h1         1 CMZ       0.041700
     35 H142        -0.5670    -0.3500     0.7940 h1         1 CMZ       0.041700
     36 H151        -0.2110     1.3100     2.5100 h1         1 CMZ       0.050200
     37 H152        -1.8610     0.6790     2.6400 h1         1 CMZ       0.050200
     38 H171         0.7910    -0.6480     5.3840 h1         1 CMZ       0.050200
     39 H172         1.4040     0.5070     4.1900 h1         1 CMZ       0.050200
     40 H181         2.1790    -1.7140     3.6040 h1         1 CMZ       0.041700
     41 H182         0.5470    -2.3860     3.6930 h1         1 CMZ       0.041700
     42 H19          5.2690    -0.1170    -1.8710 ha         1 CMZ       0.120000
@<TRIPOS>BOND
     1     1     2 1   
     2     1    20 1   
     3     1    21 1   
     4     1    22 1   
     5     2     3 ar  
     6     2    19 ar  
     7     3     4 ar  
     8     3    23 1   
     9     4     5 ar  
    10     4    24 1   
    11     5     6 1   
    12     5     7 ar  
    13     6    25 1   
    14     6    26 1   
    15     6    27 1   
    16     7     8 1   
    17     7    19 ar  
    18     8     9 1   
    19     9    10 1   
    20     9    28 1   
    21     9    29 1   
    22    10    11 1   
    23    10    12 1   
    24    10    30 1   
    25    11    31 1   
    26    12    13 1   
    27    12    32 1   
    28    12    33 1   
    29    13    14 1   
    30    13    18 1   
    31    14    15 1   
    32    14    34 1   
    33    14    35 1   
    34    15    16 1   
    35    15    36 1   
    36    15    37 1   
    37    16    17 1   
    38    17    18 1   
    39    17    38 1   
    40    17    39 1   
    41    18    40 1   
    42    18    41 1   
    43    19    42 1   
@<TRIPOS>SUBSTRUCTURE
     1 CMZ         1 TEMP              0 ****  ****    0 ROOT
