@<TRIPOS>MOLECULE
CN0
   22    22     1     0     0
SMALL
No Charge or Current Charge


@<TRIPOS>ATOM
      1 C10        -28.4040    -0.1680    22.5530 c          1 CN0       0.724000
      2 O01        -29.6930     2.0540    17.3160 oh         1 CN0      -0.733000
      3 C02        -29.2330     1.2530    18.4170 c6         1 CN0       0.134300
      4 C03        -28.1300     1.9800    19.2460 c6         1 CN0       0.160800
      5 N04        -27.6810     1.1790    20.4220 n7         1 CN0      -0.832400
      6 C05        -28.8180     0.7410    21.3320 c6         1 CN0      -0.009500
      7 C06        -29.9500     0.0220    20.5310 c6         1 CN0       0.135300
      8 O07        -31.0590    -0.2950    21.3950 oh         1 CN0      -0.798000
      9 C08        -30.4310     0.9100    19.3460 c6         1 CN0       0.125300
     10 O09        -31.4760     0.2390    18.6210 oh         1 CN0      -0.693000
     11 O11        -27.2180    -0.4130    22.7380 o          1 CN0      -0.710500
     12 O12        -29.2480    -0.2820    23.4350 o          1 CN0      -0.710500
     13 H11        -30.5930     1.6960    17.1220 ho         1 CN0       0.506000
     14 H31        -28.5230     2.9450    19.5990 h1         1 CN0       0.046200
     15 H1         -27.1810     0.3430    20.0890 hn         1 CN0       0.419000
     16 H51        -29.2520     1.6480    21.7800 h1         1 CN0       0.056700
     17 H61        -29.5320    -0.9100    20.1190 h1         1 CN0       0.024700
     18 H71        -30.6610    -0.3650    22.3110 ho         1 CN0       0.580000
     19 H81        -30.8220     1.8500    19.7660 h1         1 CN0       0.038700
     20 H91        -31.9630    -0.2570    19.3210 ho         1 CN0       0.458000
     21 H21        -28.8120     0.3110    18.0340 h1         1 CN0       0.030700
     22 H32        -27.2650     2.1930    18.6000 h1         1 CN0       0.046200
@<TRIPOS>BOND
     1     1     6 1   
     2     1    11 1   
     3     1    12 1   
     4     2     3 1   
     5     2    13 1   
     6     3     4 1   
     7     3     9 1   
     8     3    21 1   
     9     4     5 1   
    10     4    14 1   
    11     4    22 1   
    12     5     6 1   
    13     5    15 1   
    14     6     7 1   
    15     6    16 1   
    16     7     8 1   
    17     7     9 1   
    18     7    17 1   
    19     8    18 1   
    20     9    10 1   
    21     9    19 1   
    22    10    20 1   
@<TRIPOS>SUBSTRUCTURE
     1 CN0         1 TEMP              0 ****  ****    0 ROOT
