@<TRIPOS>MOLECULE
CN0
   22    22     1     0     0
SMALL
bcc


@<TRIPOS>ATOM
      1 C10        -28.3220    -0.0580    22.5190 c          1 CN0       0.934600
      2 O01        -29.6730     2.0710    17.4340 oh         1 CN0      -0.610800
      3 C02        -29.2780     1.2110    18.4790 c6         1 CN0       0.111100
      4 C03        -28.1850     1.9140    19.2810 c6         1 CN0       0.160800
      5 N04        -27.7350     1.1700    20.4380 n7         1 CN0      -0.777200
      6 C05        -28.8140     0.7800    21.3190 c6         1 CN0      -0.009500
      7 C06        -29.9450     0.0320    20.5810 c6         1 CN0       0.112100
      8 O07        -31.0380    -0.2360    21.4210 oh         1 CN0      -0.675800
      9 C08        -30.4330     0.8640    19.4040 c6         1 CN0       0.102100
     10 O09        -31.4090     0.1860    18.6400 oh         1 CN0      -0.630800
     11 O11        -27.1100    -0.2270    22.6790 o          1 CN0      -0.815800
     12 O12        -29.2420    -0.5190    23.2510 o          1 CN0      -0.815800
     13 H11        -30.4000     1.6530    16.9610 ho         1 CN0       0.407000
     14 H31        -28.5690     2.8840    19.6160 h1         1 CN0       0.046200
     15 H1         -27.2080     0.3540    20.1510 hn         1 CN0       0.363800
     16 H51        -29.2560     1.7030    21.7280 h1         1 CN0       0.056700
     17 H61        -29.5160    -0.9050    20.1800 h1         1 CN0       0.024700
     18 H71        -30.6050    -0.4260    22.2900 ho         1 CN0       0.481000
     19 H81        -30.8430     1.8080    19.8040 h1         1 CN0       0.038700
     20 H91        -32.1720     0.0260    19.2050 ho         1 CN0       0.419000
     21 H21        -28.8640     0.2720    18.0760 h1         1 CN0       0.030700
     22 H32        -27.3280     2.1190    18.6360 h1         1 CN0       0.046200
@<TRIPOS>BOND
     1     1     6 1   
     2     1    11 1   
     3     1    12 1   
     4     2     3 1   
     5     2    13 1   
     6     3     4 1   
     7     3     9 1   
     8     3    21 1   
     9     4     5 1   
    10     4    14 1   
    11     4    22 1   
    12     5     6 1   
    13     5    15 1   
    14     6     7 1   
    15     6    16 1   
    16     7     8 1   
    17     7     9 1   
    18     7    17 1   
    19     8    18 1   
    20     9    10 1   
    21     9    19 1   
    22    10    20 1   
@<TRIPOS>SUBSTRUCTURE
     1 CN0         1 TEMP              0 ****  ****    0 ROOT
