@<TRIPOS>MOLECULE
CN2
   55    57     1     0     0
SMALL
abcg2


@<TRIPOS>ATOM
      1 O4          -2.0820    -1.2930     1.9260 o          1 CN2      -0.565100
      2 C12         -2.4340    -0.2270     2.3990 c          1 CN2       0.615100
      3 C13         -3.3840    -0.1410     3.5740 c3         1 CN2      -0.036400
      4 S1          -3.7990    -1.8270     4.0950 sh         1 CN2      -0.348800
      5 N1          -2.0210     0.9640     1.9280 ns         1 CN2      -0.510900
      6 C11         -1.1420     1.0790     0.7940 c3         1 CN2       0.137900
      7 C14          0.3180     0.7430     1.0890 cc         1 CN2       0.017800
      8 C15          0.7390     0.8630     2.3770 cd         1 CN2      -0.300200
      9 C10         -1.2630     2.4910     0.2060 c3         1 CN2      -0.079400
     10 C9          -0.2560     2.7590    -0.9190 c3         1 CN2      -0.029100
     11 C8          -0.1610     1.5870    -1.8530 ca         1 CN2      -0.031300
     12 C7          -0.7250     1.6420    -3.1220 ca         1 CN2      -0.198000
     13 C5          -0.7050     0.5290    -3.9560 ca         1 CN2       0.140100
     14 C3          -0.1460    -0.6680    -3.4900 ca         1 CN2       0.047100
     15 C1           0.4310    -0.7130    -2.2250 ca         1 CN2       0.137100
     16 O1           0.9730    -1.8870    -1.8090 os         1 CN2      -0.362100
     17 C2           0.0980    -2.6690    -1.0070 c3         1 CN2       0.145900
     18 O2          -0.1960    -1.7840    -4.2600 os         1 CN2      -0.335100
     19 C4           0.9420    -1.9750    -5.0900 c3         1 CN2       0.150900
     20 O3          -1.2130     0.4930    -5.1970 os         1 CN2      -0.321100
     21 C6          -1.8150     1.6640    -5.7130 c3         1 CN2       0.144900
     22 C22          0.4430     0.4140    -1.3960 ca         1 CN2      -0.107800
     23 C21          1.0940     0.3800    -0.0600 cc         1 CN2      -0.051200
     24 C20          2.4130     0.0250    -0.0260 cd         1 CN2      -0.075000
     25 C19          3.3290    -0.0980     1.0420 cd         1 CN2      -0.285000
     26 C17          3.1910     0.1550     2.3750 cc         1 CN2       0.081900
     27 C16          1.9910     0.6620     3.0660 c          1 CN2       0.576500
     28 O5           2.0660     0.9010     4.2690 o          1 CN2      -0.531100
     29 O6           4.1810    -0.0130     3.2460 os         1 CN2      -0.307100
     30 C18          5.4410    -0.4900     2.8100 c3         1 CN2       0.140900
     31 H131        -2.9160     0.4090     4.3920 h1         1 CN2       0.074700
     32 H132        -4.2820     0.4050     3.2820 h1         1 CN2       0.074700
     33 HS1         -4.5800    -1.4610     5.1170 hs         1 CN2       0.183800
     34 HN1         -2.3350     1.8070     2.3840 hn         1 CN2       0.316500
     35 H11         -1.4910     0.3680     0.0410 h1         1 CN2       0.090700
     36 H15         -0.0240     1.1740     3.0830 ha         1 CN2       0.189000
     37 H101        -2.2820     2.6150    -0.1680 hc         1 CN2       0.049200
     38 H102        -1.1140     3.2310     0.9970 hc         1 CN2       0.049200
     39 H91         -0.5580     3.6580    -1.4560 hc         1 CN2       0.056700
     40 H92          0.7260     2.9710    -0.4870 hc         1 CN2       0.056700
     41 H7          -1.1740     2.5710    -3.4490 ha         1 CN2       0.120000
     42 H21          0.6380    -3.5720    -0.7290 h1         1 CN2       0.047033
     43 H22         -0.2010    -2.1420    -0.0970 h1         1 CN2       0.047033
     44 H23         -0.8030    -2.9500    -1.5580 h1         1 CN2       0.047033
     45 H41          0.7970    -2.9130    -5.6230 h1         1 CN2       0.036367
     46 H42          1.0500    -1.1700    -5.8210 h1         1 CN2       0.036367
     47 H43          1.8620    -2.0440    -4.5050 h1         1 CN2       0.036367
     48 H61         -2.1480     1.4210    -6.7190 h1         1 CN2       0.042033
     49 H62         -2.6810     1.9720    -5.1220 h1         1 CN2       0.042033
     50 H63         -1.1110     2.4980    -5.7680 h1         1 CN2       0.042033
     51 H20          2.8600    -0.2000    -0.9850 ha         1 CN2       0.186000
     52 H19          4.3030    -0.4380     0.7120 ha         1 CN2       0.180000
     53 H181         6.0650    -0.5520     3.6970 h1         1 CN2       0.046033
     54 H182         5.3650    -1.4810     2.3580 h1         1 CN2       0.046033
     55 H183         5.9060     0.1940     2.0950 h1         1 CN2       0.046033
@<TRIPOS>BOND
     1     1     2 2   
     2     2     3 1   
     3     2     5 1   
     4     3     4 1   
     5     3    31 1   
     6     3    32 1   
     7     4    33 1   
     8     5     6 1   
     9     5    34 1   
    10     6     7 1   
    11     6     9 1   
    12     6    35 1   
    13     7     8 2   
    14     7    23 1   
    15     8    27 1   
    16     8    36 1   
    17     9    10 1   
    18     9    37 1   
    19     9    38 1   
    20    10    11 1   
    21    10    39 1   
    22    10    40 1   
    23    11    12 ar  
    24    11    22 ar  
    25    12    13 ar  
    26    12    41 1   
    27    13    14 ar  
    28    13    20 1   
    29    14    15 ar  
    30    14    18 1   
    31    15    16 1   
    32    15    22 ar  
    33    16    17 1   
    34    17    42 1   
    35    17    43 1   
    36    17    44 1   
    37    18    19 1   
    38    19    45 1   
    39    19    46 1   
    40    19    47 1   
    41    20    21 1   
    42    21    48 1   
    43    21    49 1   
    44    21    50 1   
    45    22    23 1   
    46    23    24 2   
    47    24    25 1   
    48    24    51 1   
    49    25    26 2   
    50    25    52 1   
    51    26    27 1   
    52    26    29 1   
    53    27    28 2   
    54    29    30 1   
    55    30    53 1   
    56    30    54 1   
    57    30    55 1   
@<TRIPOS>SUBSTRUCTURE
     1 CN2         1 TEMP              0 ****  ****    0 ROOT
