@<TRIPOS>MOLECULE
CN2
   55    57     1     0     0
SMALL
No Charge or Current Charge


@<TRIPOS>ATOM
      1 O4          -2.3000    -1.3760     1.7630 o          1 CN2      -0.565100
      2 C12         -2.6020    -0.3500     2.3580 c          1 CN2       0.615100
      3 C13         -3.5340    -0.3120     3.5860 c3         1 CN2      -0.036400
      4 S1          -4.1530    -1.9920     4.1200 sh         1 CN2      -0.348800
      5 N1          -2.1230     0.8840     1.9730 ns         1 CN2      -0.510900
      6 C11         -1.2260     1.1050     0.8320 c3         1 CN2       0.137900
      7 C14          0.2470     0.8020     1.1060 cc         1 CN2       0.017800
      8 C15          0.7250     0.8920     2.4000 cd         1 CN2      -0.300200
      9 C10         -1.4140     2.5260     0.2640 c3         1 CN2      -0.079400
     10 C9          -0.4200     2.8490    -0.8710 c3         1 CN2      -0.029100
     11 C8          -0.2490     1.6710    -1.8290 ca         1 CN2      -0.031300
     12 C7          -0.7700     1.7790    -3.1270 ca         1 CN2      -0.198000
     13 C5          -0.6170     0.7340    -4.0570 ca         1 CN2       0.140100
     14 C3           0.0450    -0.4560    -3.6840 ca         1 CN2       0.047100
     15 C1           0.5470    -0.5840    -2.3530 ca         1 CN2       0.137100
     16 O1           1.0910    -1.7790    -1.9260 os         1 CN2      -0.362100
     17 C2           0.3870    -2.5790    -0.9570 c3         1 CN2       0.145900
     18 O2           0.1420    -1.4430    -4.6680 os         1 CN2      -0.335100
     19 C4           0.9290    -2.6430    -4.5570 c3         1 CN2       0.150900
     20 O3          -1.1130     0.8360    -5.3480 os         1 CN2      -0.321100
     21 C6          -1.8040     2.0030    -5.8260 c3         1 CN2       0.144900
     22 C22          0.4360     0.4960    -1.4280 ca         1 CN2      -0.107800
     23 C21          1.0270     0.4170    -0.0610 cc         1 CN2      -0.051200
     24 C20          2.3850     0.1170    -0.1420 cd         1 CN2      -0.075000
     25 C19          3.3830    -0.0140     0.8830 cd         1 CN2      -0.285000
     26 C17          3.2310     0.1860     2.2510 cc         1 CN2       0.081900
     27 C16          2.0310     0.6230     3.0120 c          1 CN2       0.576500
     28 O5           2.1070     0.7770     4.2290 o          1 CN2      -0.531100
     29 O6           4.3800    -0.0320     3.0120 os         1 CN2      -0.307100
     30 C18          5.6660    -0.4540     2.5100 c3         1 CN2       0.140900
     31 H131        -2.9840     0.1480     4.4160 h1         1 CN2       0.074700
     32 H132        -4.3920     0.3260     3.3420 h1         1 CN2       0.074700
     33 HS1         -4.8970    -1.5580     5.1670 hs         1 CN2       0.183800
     34 HN1         -2.4300     1.6850     2.5120 hn         1 CN2       0.316500
     35 H11         -1.5680     0.4040     0.0580 h1         1 CN2       0.090700
     36 H15          0.0390     1.2130     3.1730 ha         1 CN2       0.189000
     37 H101        -2.4390     2.6220    -0.1160 hc         1 CN2       0.049200
     38 H102        -1.2950     3.2680     1.0630 hc         1 CN2       0.049200
     39 H91         -0.7620     3.7470    -1.3990 hc         1 CN2       0.056700
     40 H92          0.5520     3.1170    -0.4370 hc         1 CN2       0.056700
     41 H7          -1.2860     2.6940    -3.4030 ha         1 CN2       0.120000
     42 H21          0.9380    -3.5060    -0.7560 h1         1 CN2       0.047033
     43 H22          0.2630    -2.0470    -0.0060 h1         1 CN2       0.047033
     44 H23         -0.6090    -2.8480    -1.3310 h1         1 CN2       0.047033
     45 H41          0.9290    -3.1810    -5.5130 h1         1 CN2       0.036367
     46 H42          1.9710    -2.4070    -4.3040 h1         1 CN2       0.036367
     47 H43          0.5150    -3.3180    -3.7990 h1         1 CN2       0.036367
     48 H61         -2.1040     1.8650    -6.8730 h1         1 CN2       0.042033
     49 H62         -2.7100     2.1900    -5.2360 h1         1 CN2       0.042033
     50 H63         -1.1580     2.8890    -5.7730 h1         1 CN2       0.042033
     51 H20          2.7810    -0.0550    -1.1400 ha         1 CN2       0.186000
     52 H19          4.3480    -0.2930     0.4810 ha         1 CN2       0.180000
     53 H181         6.3780    -0.5560     3.3390 h1         1 CN2       0.046033
     54 H182         5.5930    -1.4270     2.0100 h1         1 CN2       0.046033
     55 H183         6.0750     0.2840     1.8080 h1         1 CN2       0.046033
@<TRIPOS>BOND
     1     1     2 2   
     2     2     3 1   
     3     2     5 1   
     4     3     4 1   
     5     3    31 1   
     6     3    32 1   
     7     4    33 1   
     8     5     6 1   
     9     5    34 1   
    10     6     7 1   
    11     6     9 1   
    12     6    35 1   
    13     7     8 2   
    14     7    23 1   
    15     8    27 1   
    16     8    36 1   
    17     9    10 1   
    18     9    37 1   
    19     9    38 1   
    20    10    11 1   
    21    10    39 1   
    22    10    40 1   
    23    11    12 ar  
    24    11    22 ar  
    25    12    13 ar  
    26    12    41 1   
    27    13    14 ar  
    28    13    20 1   
    29    14    15 ar  
    30    14    18 1   
    31    15    16 1   
    32    15    22 ar  
    33    16    17 1   
    34    17    42 1   
    35    17    43 1   
    36    17    44 1   
    37    18    19 1   
    38    19    45 1   
    39    19    46 1   
    40    19    47 1   
    41    20    21 1   
    42    21    48 1   
    43    21    49 1   
    44    21    50 1   
    45    22    23 1   
    46    23    24 2   
    47    24    25 1   
    48    24    51 1   
    49    25    26 2   
    50    25    52 1   
    51    26    27 1   
    52    26    29 1   
    53    27    28 2   
    54    29    30 1   
    55    30    53 1   
    56    30    54 1   
    57    30    55 1   
@<TRIPOS>SUBSTRUCTURE
     1 CN2         1 TEMP              0 ****  ****    0 ROOT
