@<TRIPOS>MOLECULE
CN3
  121   120     1     0     0
SMALL
No Charge or Current Charge


@<TRIPOS>ATOM
      1 P           -4.0390     2.5000    -1.6960 p5         1 CN3       1.399800
      2 O11         -5.6270     2.3650    -1.9630 os         1 CN3      -0.569400
      3 O12         -3.2450     1.6490    -2.6300 o          1 CN3      -0.835000
      4 O13         -3.9910     1.9530    -0.1780 os         1 CN3      -0.577400
      5 O14         -3.6070     3.9250    -1.7710 o          1 CN3      -0.835000
      6 C1          -6.2910     1.1390    -2.3350 c3         1 CN3       0.218600
      7 C2          -6.1930     0.0450    -1.2280 c3         1 CN3       0.160300
      8 C3          -7.3740    -0.9610    -1.3280 c3         1 CN3       0.150600
      9 O31         -7.2870    -1.9100    -0.2470 os         1 CN3      -0.437100
     10 O32         -9.1940    -2.9970    -0.9210 o          1 CN3      -0.504000
     11 C31         -8.2360    -2.8930    -0.1650 c          1 CN3       0.592100
     12 C32         -7.9870    -3.8190     1.0280 c3         1 CN3      -0.142400
     13 C33         -8.7330    -3.3290     2.2880 c3         1 CN3      -0.078100
     14 O21         -4.9600    -0.6890    -1.4270 os         1 CN3      -0.443100
     15 O22         -4.6360    -1.0580     0.8290 o          1 CN3      -0.488000
     16 C21         -4.3040    -1.2120    -0.3400 c          1 CN3       0.620100
     17 C22         -3.1310    -2.0920    -0.7710 c3         1 CN3      -0.140400
     18 C23         -3.5910    -3.5580    -0.9510 c3         1 CN3      -0.067400
     19 C24         -2.4550    -4.4980    -1.3930 c3         1 CN3      -0.088100
     20 P1          -0.2400     5.6640     1.8640 p5         1 CN3       1.396800
     21 O1           0.7720     4.5560     1.2820 os         1 CN3      -0.566400
     22 O2           0.3320     6.3450     3.0640 o          1 CN3      -0.835000
     23 O4          -0.6390     6.6520     0.8180 o          1 CN3      -0.835000
     24 C6           1.4890     3.7350     2.2130 c3         1 CN3       0.226600
     25 C7           2.3310     2.7010     1.4270 c3         1 CN3       0.161300
     26 C8           3.3850     2.0200     2.3380 c3         1 CN3       0.143600
     27 O41          4.2130     1.1500     1.5400 os         1 CN3      -0.439100
     28 O42          5.2850     0.3350     3.3990 o          1 CN3      -0.503000
     29 C41          5.1280     0.3610     2.1860 c          1 CN3       0.596100
     30 C42          5.9160    -0.5140     1.2090 c3         1 CN3      -0.143400
     31 C43          7.3070     0.0920     0.9070 c3         1 CN3      -0.066400
     32 C44          8.1750    -0.8050    -0.0030 c3         1 CN3      -0.077400
     33 C45          9.5780    -0.2150    -0.2670 c3         1 CN3      -0.073400
     34 C46         10.4690    -1.1310    -1.1360 c3         1 CN3      -0.075400
     35 C47         11.8830    -0.5530    -1.3700 c3         1 CN3      -0.073400
     36 C48         12.7870    -1.4820    -2.2100 c3         1 CN3      -0.075400
     37 C49         14.2080    -0.9140    -2.4270 c3         1 CN3      -0.075400
     38 C4A         15.1140    -1.8530    -3.2540 c3         1 CN3      -0.075400
     39 C4B         16.5350    -1.2940    -3.4650 c3         1 CN3      -0.088100
     40 O51          1.4370     1.6680     0.9390 os         1 CN3      -0.433100
     41 O52          2.5340     1.4680    -1.0760 o          1 CN3      -0.495000
     42 C51          1.7050     1.0720    -0.2670 c          1 CN3       0.617100
     43 C52          0.8770    -0.1990    -0.4630 c3         1 CN3      -0.140400
     44 C53          1.7010    -1.4380    -0.0380 c3         1 CN3      -0.066400
     45 C54          0.9410    -2.7730    -0.1860 c3         1 CN3      -0.076400
     46 C55          1.8160    -3.9950     0.1750 c3         1 CN3      -0.074400
     47 C56          1.0740    -5.3410     0.0260 c3         1 CN3      -0.074400
     48 C57          1.9600    -6.5630     0.3520 c3         1 CN3      -0.075400
     49 C58          1.2170    -7.9060     0.1820 c3         1 CN3      -0.075400
     50 C59          2.1000    -9.1290     0.4940 c3         1 CN3      -0.087100
     51 CA          -2.3280     4.1930     1.2290 c3         1 CN3       0.181600
     52 CB          -3.2820     3.1290     1.8410 c3         1 CN3       0.157300
     53 OA          -2.5640     1.9170     2.1470 oh         1 CN3      -0.639000
     54 CC          -4.4690     2.7690     0.9060 c3         1 CN3       0.186600
     55 H1          -7.3520     1.3580    -2.5160 h1         1 CN3       0.026200
     56 H1A         -5.8830     0.7470    -3.2770 h1         1 CN3       0.026200
     57 H2          -6.2310     0.5420    -0.2500 h1         1 CN3       0.087700
     58 H3          -8.3220    -0.4090    -1.2730 h1         1 CN3       0.055200
     59 H3A         -7.3340    -1.4720    -2.3000 h1         1 CN3       0.055200
     60 H32         -8.3290    -4.8310     0.7810 hc         1 CN3       0.071200
     61 H33         -8.4060    -2.3190     2.5640 hc         1 CN3       0.036367
     62 H33A        -9.8160    -3.3080     2.1150 hc         1 CN3       0.036367
     63 H22         -2.7570    -1.7420    -1.7410 hc         1 CN3       0.071200
     64 H22A        -2.3450    -2.0490    -0.0090 hc         1 CN3       0.071200
     65 H23         -4.0120    -3.9260    -0.0060 hc         1 CN3       0.051700
     66 H23A        -4.3980    -3.5970    -1.6950 hc         1 CN3       0.051700
     67 H24         -2.8320    -5.5190    -1.5260 hc         1 CN3       0.026700
     68 H24A        -2.0200    -4.1640    -2.3440 hc         1 CN3       0.026700
     69 H24B        -1.6630    -4.5200    -0.6370 hc         1 CN3       0.026700
     70 H7           2.1620     4.3540     2.8220 h1         1 CN3       0.026700
     71 H1'A         0.8020     3.2100     2.8910 h1         1 CN3       0.026700
     72 H8           2.8420     3.2330     0.6150 h1         1 CN3       0.092700
     73 H9           4.0000     2.7890     2.8240 h1         1 CN3       0.055700
     74 H3'A         2.8650     1.4540     3.1220 h1         1 CN3       0.055700
     75 H42          6.0470    -1.5080     1.6530 hc         1 CN3       0.073200
     76 H42A         5.3670    -0.5860     0.2620 hc         1 CN3       0.073200
     77 H43          7.1790     1.0750     0.4350 hc         1 CN3       0.050200
     78 H43A         7.8370     0.2600     1.8540 hc         1 CN3       0.050200
     79 H44          8.2830    -1.7920     0.4640 hc         1 CN3       0.038200
     80 H44A         7.6590    -0.9570    -0.9600 hc         1 CN3       0.038200
     81 H45          9.4740     0.7600    -0.7600 hc         1 CN3       0.037700
     82 H45A        10.0790    -0.0370     0.6930 hc         1 CN3       0.037700
     83 H46         10.5580    -2.1110    -0.6510 hc         1 CN3       0.037700
     84 H46A         9.9810    -1.2960    -2.1050 hc         1 CN3       0.037700
     85 H47         11.7970     0.4190    -1.8730 hc         1 CN3       0.036200
     86 H47A        12.3610    -0.3700    -0.3990 hc         1 CN3       0.036200
     87 H48         12.8630    -2.4570    -1.7100 hc         1 CN3       0.036700
     88 H48A        12.3160    -1.6590    -3.1850 hc         1 CN3       0.036700
     89 H49         14.1340     0.0560    -2.9340 hc         1 CN3       0.036200
     90 H49A        14.6750    -0.7300    -1.4510 hc         1 CN3       0.036200
     91 H4A         15.1850    -2.8250    -2.7500 hc         1 CN3       0.036700
     92 H4AA        14.6530    -2.0330    -4.2340 hc         1 CN3       0.036700
     93 H4B         16.5000    -0.3370    -4.0000 hc         1 CN3       0.029033
     94 H4BA        17.0370    -1.1360    -2.5030 hc         1 CN3       0.029033
     95 H4BB        17.1360    -1.9950    -4.0560 hc         1 CN3       0.029033
     96 H52         -0.0190    -0.1540     0.1670 hc         1 CN3       0.070200
     97 H52A         0.6030    -0.2950    -1.5200 hc         1 CN3       0.070200
     98 H53          2.6170    -1.4790    -0.6410 hc         1 CN3       0.051700
     99 H53A         2.0160    -1.3190     1.0070 hc         1 CN3       0.051700
    100 H54          0.0550    -2.7590     0.4610 hc         1 CN3       0.036200
    101 H54A         0.5850    -2.8760    -1.2190 hc         1 CN3       0.036200
    102 H55          2.7040    -4.0030    -0.4690 hc         1 CN3       0.038200
    103 H55A         2.1710    -3.8930     1.2080 hc         1 CN3       0.038200
    104 H56          0.2010    -5.3460     0.6900 hc         1 CN3       0.035700
    105 H56A         0.7000    -5.4340    -1.0020 hc         1 CN3       0.035700
    106 H57          2.8420    -6.5540    -0.3020 hc         1 CN3       0.036200
    107 H57A         2.3250    -6.4790     1.3830 hc         1 CN3       0.036200
    108 H58          0.3400    -7.9210     0.8420 hc         1 CN3       0.035700
    109 H58A         0.8450    -7.9880    -0.8470 hc         1 CN3       0.035700
    110 H59          1.5280   -10.0560     0.3620 hc         1 CN3       0.027367
    111 H59A         2.9670    -9.1630    -0.1770 hc         1 CN3       0.027367
    112 H59B         2.4620    -9.0930     1.5280 hc         1 CN3       0.027367
    113 HA          -2.9210     5.0130     0.8050 h1         1 CN3       0.019700
    114 HAA         -1.7440     3.7360     0.4180 h1         1 CN3       0.019700
    115 HB          -3.7080     3.5600     2.7570 h1         1 CN3       0.082700
    116 HOA         -2.7220     1.3400     1.3660 ho         1 CN3       0.425000
    117 HC          -4.9510     3.6880     0.5460 h1         1 CN3       0.018200
    118 HCA         -5.2190     2.2120     1.4820 h1         1 CN3       0.018200
    119 H67         -6.9160    -3.8180     1.2650 hc         1 CN3       0.071200
    120 H68         -8.5330    -3.9970     3.1350 hc         1 CN3       0.036367
    121 O3          -1.4640     4.6940     2.2620 os         1 CN3      -0.577400
@<TRIPOS>BOND
     1     1     2 1   
     2     1     3 1   
     3     1     4 1   
     4     1     5 1   
     5     2     6 1   
     6     4    54 1   
     7     6     7 1   
     8     6    55 1   
     9     6    56 1   
    10     7     8 1   
    11     7    14 1   
    12     7    57 1   
    13     8     9 1   
    14     8    58 1   
    15     8    59 1   
    16     9    11 1   
    17    10    11 2   
    18    11    12 1   
    19    12    13 1   
    20    12    60 1   
    21    12   119 1   
    22    13    61 1   
    23    13    62 1   
    24    13   120 1   
    25    14    16 1   
    26    15    16 2   
    27    16    17 1   
    28    17    18 1   
    29    17    63 1   
    30    17    64 1   
    31    18    19 1   
    32    18    65 1   
    33    18    66 1   
    34    19    67 1   
    35    19    68 1   
    36    19    69 1   
    37    20    21 1   
    38    20    22 1   
    39    20    23 1   
    40    20   121 1   
    41    21    24 1   
    42    24    25 1   
    43    24    70 1   
    44    24    71 1   
    45    25    26 1   
    46    25    40 1   
    47    25    72 1   
    48    26    27 1   
    49    26    73 1   
    50    26    74 1   
    51    27    29 1   
    52    28    29 2   
    53    29    30 1   
    54    30    31 1   
    55    30    75 1   
    56    30    76 1   
    57    31    32 1   
    58    31    77 1   
    59    31    78 1   
    60    32    33 1   
    61    32    79 1   
    62    32    80 1   
    63    33    34 1   
    64    33    81 1   
    65    33    82 1   
    66    34    35 1   
    67    34    83 1   
    68    34    84 1   
    69    35    36 1   
    70    35    85 1   
    71    35    86 1   
    72    36    37 1   
    73    36    87 1   
    74    36    88 1   
    75    37    38 1   
    76    37    89 1   
    77    37    90 1   
    78    38    39 1   
    79    38    91 1   
    80    38    92 1   
    81    39    93 1   
    82    39    94 1   
    83    39    95 1   
    84    40    42 1   
    85    41    42 2   
    86    42    43 1   
    87    43    44 1   
    88    43    96 1   
    89    43    97 1   
    90    44    45 1   
    91    44    98 1   
    92    44    99 1   
    93    45    46 1   
    94    45   100 1   
    95    45   101 1   
    96    46    47 1   
    97    46   102 1   
    98    46   103 1   
    99    47    48 1   
   100    47   104 1   
   101    47   105 1   
   102    48    49 1   
   103    48   106 1   
   104    48   107 1   
   105    49    50 1   
   106    49   108 1   
   107    49   109 1   
   108    50   110 1   
   109    50   111 1   
   110    50   112 1   
   111    51    52 1   
   112    51   113 1   
   113    51   114 1   
   114    51   121 1   
   115    52    53 1   
   116    52    54 1   
   117    52   115 1   
   118    53   116 1   
   119    54   117 1   
   120    54   118 1   
@<TRIPOS>SUBSTRUCTURE
     1 CN3         1 TEMP              0 ****  ****    0 ROOT
