@<TRIPOS>MOLECULE
CN3
  121   120     1     0     0
SMALL
bcc


@<TRIPOS>ATOM
      1 P           -7.2100     2.6200     0.0260 p5         1 CN3       1.399800
      2 O11         -7.6160     1.0980     0.4930 os         1 CN3      -0.546200
      3 O12         -7.4390     2.7870    -1.4440 o          1 CN3      -0.835000
      4 O13         -5.6190     2.3830     0.3360 os         1 CN3      -0.554200
      5 O14         -7.7790     3.6230     0.9830 o          1 CN3      -0.835000
      6 C1          -8.9610     0.7080     0.3650 c3         1 CN3       0.195400
      7 C2          -9.0240    -0.8010     0.5050 c3         1 CN3       0.137100
      8 C3         -10.4470    -1.2990     0.3970 c3         1 CN3       0.127400
      9 O31        -10.4110    -2.7110     0.5860 os         1 CN3      -0.413900
     10 O32        -12.6360    -2.8190     0.4750 o          1 CN3      -0.553000
     11 C31        -11.5700    -3.3650     0.5990 c          1 CN3       0.641100
     12 C32        -11.3640    -4.8460     0.7730 c3         1 CN3      -0.142400
     13 C33        -12.6570    -5.6110     0.9860 c3         1 CN3      -0.078100
     14 O21         -8.2720    -1.3810    -0.5610 os         1 CN3      -0.419900
     15 O22         -6.6720    -2.1820     0.7890 o          1 CN3      -0.537000
     16 C21         -7.1190    -1.9990    -0.3130 c          1 CN3       0.669100
     17 C22         -6.4580    -2.4320    -1.5940 c3         1 CN3      -0.140400
     18 C23         -5.2330    -3.3100    -1.3860 c3         1 CN3      -0.067400
     19 C24         -4.6120    -3.7260    -2.7120 c3         1 CN3      -0.088100
     20 P1           0.0700     4.9740     0.8430 p5         1 CN3       1.396800
     21 O1           1.2960     3.9000     0.6250 os         1 CN3      -0.543200
     22 O2           0.0520     5.4450     2.2650 o          1 CN3      -0.835000
     23 O4           0.0590     5.9750    -0.2710 o          1 CN3      -0.835000
     24 C6           2.5830     4.2940     1.0370 c3         1 CN3       0.203400
     25 C7           3.5840     3.3350     0.4270 c3         1 CN3       0.138100
     26 C8           4.9990     3.6990     0.8270 c3         1 CN3       0.120400
     27 O41          5.8550     2.7220     0.2450 os         1 CN3      -0.415900
     28 O42          7.6530     3.6660     1.1690 o          1 CN3      -0.552000
     29 C41          7.1580     2.7890     0.5070 c          1 CN3       0.645100
     30 C42          7.8960     1.6400    -0.1210 c3         1 CN3      -0.143400
     31 C43          9.4030     1.6880     0.0750 c3         1 CN3      -0.066400
     32 C44         10.0810     0.4560    -0.5110 c3         1 CN3      -0.077400
     33 C45         11.5960     0.4680    -0.3460 c3         1 CN3      -0.073400
     34 C46         12.2590    -0.7940    -0.8820 c3         1 CN3      -0.075400
     35 C47         13.7750    -0.7940    -0.7340 c3         1 CN3      -0.073400
     36 C48         14.4250    -2.0750    -1.2410 c3         1 CN3      -0.075400
     37 C49         15.9420    -2.0800    -1.1030 c3         1 CN3      -0.075400
     38 C4A         16.5870    -3.3710    -1.5950 c3         1 CN3      -0.075400
     39 C4B         18.1030    -3.3640    -1.4580 c3         1 CN3      -0.088100
     40 O51          3.3060     2.0260     0.9270 os         1 CN3      -0.409900
     41 O52          3.2120     1.1000    -1.1120 o          1 CN3      -0.544000
     42 C51          3.1730     1.0010     0.0870 c          1 CN3       0.666100
     43 C52          2.9630    -0.2850     0.8390 c3         1 CN3      -0.140400
     44 C53          2.8890    -1.5100    -0.0570 c3         1 CN3      -0.066400
     45 C54          2.7320    -2.7960     0.7440 c3         1 CN3      -0.076400
     46 C55          2.6830    -4.0360    -0.1400 c3         1 CN3      -0.074400
     47 C56          2.5530    -5.3340     0.6480 c3         1 CN3      -0.074400
     48 C57          2.5190    -6.5710    -0.2400 c3         1 CN3      -0.075400
     49 C58          2.4100    -7.8750     0.5410 c3         1 CN3      -0.075400
     50 C59          2.3820    -9.1010    -0.3620 c3         1 CN3      -0.087100
     51 CA          -2.4280     4.2760     0.5500 c3         1 CN3       0.158400
     52 CB          -3.3350     3.0740     0.3370 c3         1 CN3       0.134100
     53 OA          -3.0330     2.3740    -0.8450 oh         1 CN3      -0.576800
     54 CC          -4.7870     3.5220     0.3910 c3         1 CN3       0.163400
     55 H1          -9.5850     1.1590     1.1450 h1         1 CN3       0.026200
     56 H1A         -9.3790     1.0050    -0.6040 h1         1 CN3       0.026200
     57 H2          -8.6060    -1.0940     1.4710 h1         1 CN3       0.087700
     58 H3         -11.0580    -0.8220     1.1660 h1         1 CN3       0.055200
     59 H3A        -10.8760    -1.0550    -0.5790 h1         1 CN3       0.055200
     60 H32        -10.8420    -5.2130    -0.1160 hc         1 CN3       0.071200
     61 H33        -13.1760    -5.2800     1.8850 hc         1 CN3       0.036367
     62 H33A       -13.3370    -5.4960     0.1430 hc         1 CN3       0.036367
     63 H22         -7.1990    -2.9470    -2.2120 hc         1 CN3       0.071200
     64 H22A        -6.1880    -1.5300    -2.1530 hc         1 CN3       0.071200
     65 H23         -4.4930    -2.7770    -0.7860 hc         1 CN3       0.051700
     66 H23A        -5.5110    -4.1990    -0.8160 hc         1 CN3       0.051700
     67 H24         -3.7440    -4.3650    -2.5550 hc         1 CN3       0.026700
     68 H24A        -5.3240    -4.2780    -3.3280 hc         1 CN3       0.026700
     69 H24B        -4.2840    -2.8580    -3.2860 hc         1 CN3       0.026700
     70 H7           2.8330     5.3050     0.6930 h1         1 CN3       0.026700
     71 H1'A         2.6690     4.2880     2.1290 h1         1 CN3       0.026700
     72 H8           3.4890     3.3570    -0.6610 h1         1 CN3       0.092700
     73 H9           5.2420     4.6980     0.4560 h1         1 CN3       0.055700
     74 H3'A         5.1060     3.7030     1.9150 h1         1 CN3       0.055700
     75 H42          7.4870     0.7140     0.2980 hc         1 CN3       0.073200
     76 H42A         7.6470     1.6110    -1.1870 hc         1 CN3       0.073200
     77 H43          9.8110     2.5890    -0.3910 hc         1 CN3       0.050200
     78 H43A         9.6370     1.7570     1.1410 hc         1 CN3       0.050200
     79 H44          9.6730    -0.4420    -0.0340 hc         1 CN3       0.038200
     80 H44A         9.8330     0.3720    -1.5750 hc         1 CN3       0.038200
     81 H45         12.0110     1.3450    -0.8550 hc         1 CN3       0.037700
     82 H45A        11.8450     0.5870     0.7140 hc         1 CN3       0.037700
     83 H46         11.8440    -1.6660    -0.3640 hc         1 CN3       0.037700
     84 H46A        11.9990    -0.9200    -1.9390 hc         1 CN3       0.037700
     85 H47         14.1940     0.0650    -1.2710 hc         1 CN3       0.036200
     86 H47A        14.0370    -0.6470     0.3200 hc         1 CN3       0.036200
     87 H48         14.0080    -2.9310    -0.6980 hc         1 CN3       0.036700
     88 H48A        14.1560    -2.2270    -2.2930 hc         1 CN3       0.036700
     89 H49         16.3610    -1.2320    -1.6570 hc         1 CN3       0.036200
     90 H49A        16.2130    -1.9190    -0.0540 hc         1 CN3       0.036200
     91 H4A         16.1700    -4.2170    -1.0390 hc         1 CN3       0.036700
     92 H4AA        16.3160    -3.5360    -2.6420 hc         1 CN3       0.036700
     93 H4B         18.5460    -2.5500    -2.0360 hc         1 CN3       0.029033
     94 H4BA        18.4060    -3.2290    -0.4170 hc         1 CN3       0.029033
     95 H4BB        18.5440    -4.2970    -1.8100 hc         1 CN3       0.029033
     96 H52          3.7740    -0.3920     1.5660 hc         1 CN3       0.070200
     97 H52A         2.0490    -0.1880     1.4350 hc         1 CN3       0.070200
     98 H53          2.0530    -1.4110    -0.7550 hc         1 CN3       0.051700
     99 H53A         3.7940    -1.5750    -0.6680 hc         1 CN3       0.051700
    100 H54          3.5630    -2.8900     1.4520 hc         1 CN3       0.036200
    101 H54A         1.8210    -2.7440     1.3510 hc         1 CN3       0.036200
    102 H55          1.8450    -3.9490    -0.8400 hc         1 CN3       0.038200
    103 H55A         3.5890    -4.0760    -0.7550 hc         1 CN3       0.038200
    104 H56          3.3890    -5.4160     1.3520 hc         1 CN3       0.035700
    105 H56A         1.6450    -5.3000     1.2600 hc         1 CN3       0.035700
    106 H57          1.6770    -6.4940    -0.9370 hc         1 CN3       0.036200
    107 H57A         3.4220    -6.5970    -0.8600 hc         1 CN3       0.036200
    108 H58          3.2520    -7.9510     1.2370 hc         1 CN3       0.035700
    109 H58A         1.5070    -7.8530     1.1600 hc         1 CN3       0.035700
    110 H59          2.3130   -10.0250     0.2130 hc         1 CN3       0.027367
    111 H59A         1.5290    -9.0680    -1.0420 hc         1 CN3       0.027367
    112 H59B         3.2860    -9.1590    -0.9720 hc         1 CN3       0.027367
    113 HA          -2.7110     4.7720     1.4860 h1         1 CN3       0.019700
    114 HAA         -2.5760     5.0020    -0.2600 h1         1 CN3       0.019700
    115 HB          -3.1640     2.3650     1.1550 h1         1 CN3       0.082700
    116 HOA         -3.1800     2.9600    -1.5950 ho         1 CN3       0.386000
    117 HC          -4.9850     4.2080    -0.4450 h1         1 CN3       0.018200
    118 HCA         -4.9590     4.0850     1.3150 h1         1 CN3       0.018200
    119 H67        -10.6730    -5.0050     1.6040 hc         1 CN3       0.071200
    120 H68        -12.4450    -6.6730     1.0980 hc         1 CN3       0.036367
    121 O3          -1.0860     3.8380     0.5950 os         1 CN3      -0.554200
@<TRIPOS>BOND
     1     1     2 1   
     2     1     3 1   
     3     1     4 1   
     4     1     5 1   
     5     2     6 1   
     6     4    54 1   
     7     6     7 1   
     8     6    55 1   
     9     6    56 1   
    10     7     8 1   
    11     7    14 1   
    12     7    57 1   
    13     8     9 1   
    14     8    58 1   
    15     8    59 1   
    16     9    11 1   
    17    10    11 2   
    18    11    12 1   
    19    12    13 1   
    20    12    60 1   
    21    12   119 1   
    22    13    61 1   
    23    13    62 1   
    24    13   120 1   
    25    14    16 1   
    26    15    16 2   
    27    16    17 1   
    28    17    18 1   
    29    17    63 1   
    30    17    64 1   
    31    18    19 1   
    32    18    65 1   
    33    18    66 1   
    34    19    67 1   
    35    19    68 1   
    36    19    69 1   
    37    20    21 1   
    38    20    22 1   
    39    20    23 1   
    40    20   121 1   
    41    21    24 1   
    42    24    25 1   
    43    24    70 1   
    44    24    71 1   
    45    25    26 1   
    46    25    40 1   
    47    25    72 1   
    48    26    27 1   
    49    26    73 1   
    50    26    74 1   
    51    27    29 1   
    52    28    29 2   
    53    29    30 1   
    54    30    31 1   
    55    30    75 1   
    56    30    76 1   
    57    31    32 1   
    58    31    77 1   
    59    31    78 1   
    60    32    33 1   
    61    32    79 1   
    62    32    80 1   
    63    33    34 1   
    64    33    81 1   
    65    33    82 1   
    66    34    35 1   
    67    34    83 1   
    68    34    84 1   
    69    35    36 1   
    70    35    85 1   
    71    35    86 1   
    72    36    37 1   
    73    36    87 1   
    74    36    88 1   
    75    37    38 1   
    76    37    89 1   
    77    37    90 1   
    78    38    39 1   
    79    38    91 1   
    80    38    92 1   
    81    39    93 1   
    82    39    94 1   
    83    39    95 1   
    84    40    42 1   
    85    41    42 2   
    86    42    43 1   
    87    43    44 1   
    88    43    96 1   
    89    43    97 1   
    90    44    45 1   
    91    44    98 1   
    92    44    99 1   
    93    45    46 1   
    94    45   100 1   
    95    45   101 1   
    96    46    47 1   
    97    46   102 1   
    98    46   103 1   
    99    47    48 1   
   100    47   104 1   
   101    47   105 1   
   102    48    49 1   
   103    48   106 1   
   104    48   107 1   
   105    49    50 1   
   106    49   108 1   
   107    49   109 1   
   108    50   110 1   
   109    50   111 1   
   110    50   112 1   
   111    51    52 1   
   112    51   113 1   
   113    51   114 1   
   114    51   121 1   
   115    52    53 1   
   116    52    54 1   
   117    52   115 1   
   118    53   116 1   
   119    54   117 1   
   120    54   118 1   
@<TRIPOS>SUBSTRUCTURE
     1 CN3         1 TEMP              0 ****  ****    0 ROOT
