@<TRIPOS>MOLECULE
CN5
   91    90     1     0     0
SMALL
No Charge or Current Charge


@<TRIPOS>ATOM
      1 P            2.9840    -5.1450     0.4680 p5         1 CN5       1.397800
      2 O11          1.9760    -5.3860    -0.7690 os         1 CN5      -0.577400
      3 O12          2.5920    -5.9520     1.6600 o          1 CN5      -0.837000
      4 O13          2.7240    -3.5700     0.7130 os         1 CN5      -0.577400
      5 O14          4.3970    -5.4150     0.0750 o          1 CN5      -0.837000
      6 C1           0.6080    -5.7780    -0.5840 c3         1 CN5       0.226600
      7 C2          -0.2270    -4.6520     0.0700 c3         1 CN5      -0.093400
      8 C3          -1.6720    -5.1140     0.3280 c3         1 CN5       0.162600
      9 O31         -2.4240    -4.0010     0.8450 os         1 CN5      -0.448100
     10 O32         -4.1780    -5.3730     1.4010 o          1 CN5      -0.505000
     11 C31         -3.6910    -4.2540     1.3060 c          1 CN5       0.594100
     12 C32         -4.3950    -2.9890     1.8050 c3         1 CN5      -0.143400
     13 C33         -5.5610    -2.5900     0.8670 c3         1 CN5      -0.066400
     14 C34         -6.4380    -1.4450     1.4220 c3         1 CN5      -0.077400
     15 C35         -7.6510    -1.1310     0.5160 c3         1 CN5      -0.073400
     16 C36         -8.5860    -0.0410     1.0890 c3         1 CN5      -0.075400
     17 C37         -9.8100     0.2320     0.1850 c3         1 CN5      -0.074400
     18 C38        -10.7630     1.3120     0.7460 c3         1 CN5      -0.074400
     19 C39        -11.9730     1.5840    -0.1780 c3         1 CN5      -0.074400
     20 C3A        -12.9210     2.6830     0.3570 c3         1 CN5      -0.074400
     21 C3B        -14.1110     2.9680    -0.5900 c3         1 CN5      -0.074400
     22 C3C        -15.0500     4.0840    -0.0740 c3         1 CN5      -0.074400
     23 C3D        -16.2290     4.3750    -1.0320 c3         1 CN5      -0.075400
     24 C3E        -17.1640     5.4970    -0.5240 c3         1 CN5      -0.075400
     25 C3F        -18.3370     5.7880    -1.4810 c3         1 CN5      -0.088100
     26 P1           7.7090    -0.3770    -0.9020 p5         1 CN5       1.397800
     27 O1           7.5260     1.1910    -1.2300 os         1 CN5      -0.577400
     28 O2           7.5050    -1.1980    -2.1330 o          1 CN5      -0.837000
     29 O4           9.0400    -0.6490    -0.2800 o          1 CN5      -0.837000
     30 C5           7.9740     2.1550    -0.2750 c3         1 CN5       0.227600
     31 C6           7.7360     3.5510    -0.8770 c3         1 CN5      -0.093400
     32 C7           8.2190     4.6830     0.0470 c3         1 CN5       0.161600
     33 O41          8.0120     5.9270    -0.6440 os         1 CN5      -0.447100
     34 O42          8.8780     7.1380     1.1080 o          1 CN5      -0.507000
     35 C41          8.3840     7.0850    -0.0110 c          1 CN5       0.593100
     36 C42          8.1110     8.3110    -0.8730 c3         1 CN5      -0.158100
     37 CA           5.1520    -0.7960    -0.2270 c3         1 CN5       0.181600
     38 CB           4.7600    -2.2660     0.1290 c3         1 CN5       0.158300
     39 OA           5.5800    -3.2150    -0.5850 oh         1 CN5      -0.640000
     40 CC           3.2420    -2.5310    -0.1440 c3         1 CN5       0.182600
     41 H1           0.1620    -6.0270    -1.5560 h1         1 CN5       0.016700
     42 H1A          0.5520    -6.6800     0.0400 h1         1 CN5       0.016700
     43 H2           0.2120    -4.3520     1.0270 hc         1 CN5       0.059700
     44 H2A         -0.2310    -3.7750    -0.5880 hc         1 CN5       0.059700
     45 H3          -2.1200    -5.4780    -0.6060 h1         1 CN5       0.044200
     46 H3A         -1.6540    -5.9430     1.0490 h1         1 CN5       0.044200
     47 H32         -4.7990    -3.1920     2.8040 hc         1 CN5       0.069700
     48 H32A        -3.6810    -2.1580     1.8510 hc         1 CN5       0.069700
     49 H33         -5.1560    -2.3020    -0.1120 hc         1 CN5       0.050700
     50 H33A        -6.1970    -3.4690     0.7010 hc         1 CN5       0.050700
     51 H34         -6.8000    -1.7200     2.4200 hc         1 CN5       0.036700
     52 H34A        -5.8260    -0.5420     1.5390 hc         1 CN5       0.036700
     53 H35         -7.2900    -0.8150    -0.4710 hc         1 CN5       0.038200
     54 H35A        -8.2300    -2.0510     0.3640 hc         1 CN5       0.038200
     55 H36         -8.9340    -0.3510     2.0820 hc         1 CN5       0.037200
     56 H36A        -8.0180     0.8880     1.2230 hc         1 CN5       0.037200
     57 H37         -9.4590     0.5430    -0.8070 hc         1 CN5       0.036700
     58 H37A       -10.3700    -0.7010     0.0470 hc         1 CN5       0.036700
     59 H38        -11.1260     0.9970     1.7320 hc         1 CN5       0.037200
     60 H38A       -10.2040     2.2450     0.8920 hc         1 CN5       0.037200
     61 H39        -11.6070     1.8800    -1.1690 hc         1 CN5       0.036700
     62 H39A       -12.5400     0.6540    -0.3120 hc         1 CN5       0.036700
     63 H3AA       -13.3060     2.3810     1.3390 hc         1 CN5       0.036700
     64 H3AB       -12.3510     3.6080     0.5060 hc         1 CN5       0.036700
     65 H3B        -13.7240     3.2530    -1.5760 hc         1 CN5       0.036700
     66 H3BA       -14.6900     2.0460    -0.7280 hc         1 CN5       0.036700
     67 H3C        -15.4470     3.7960     0.9080 hc         1 CN5       0.036700
     68 H3CA       -14.4700     5.0040     0.0710 hc         1 CN5       0.036700
     69 H3D        -15.8310     4.6580    -2.0150 hc         1 CN5       0.036700
     70 H3DA       -16.8130     3.4570    -1.1740 hc         1 CN5       0.036700
     71 H3E        -17.5670     5.2180     0.4580 hc         1 CN5       0.036700
     72 H3EA       -16.5840     6.4190    -0.3820 hc         1 CN5       0.036700
     73 H3F        -18.9720     6.5870    -1.0760 hc         1 CN5       0.029700
     74 H3FA       -17.9680     6.1090    -2.4630 hc         1 CN5       0.029700
     75 H3FB       -18.9580     4.8940    -1.6180 hc         1 CN5       0.029700
     76 H5           7.4200     2.0590     0.6680 h1         1 CN5       0.016200
     77 H1'A         9.0450     2.0310    -0.0660 h1         1 CN5       0.016200
     78 H6           8.2640     3.6210    -1.8360 hc         1 CN5       0.059700
     79 H2'A         6.6660     3.6810    -1.0790 hc         1 CN5       0.059700
     80 H7           7.6520     4.6590     0.9880 h1         1 CN5       0.043700
     81 H3'A         9.2840     4.5400     0.2780 h1         1 CN5       0.043700
     82 H42          8.4030     9.2460    -0.3830 hc         1 CN5       0.061033
     83 H42A         8.6110     8.1840    -1.8400 hc         1 CN5       0.061033
     84 H42B         7.0530     8.3140    -1.1590 hc         1 CN5       0.061033
     85 HA           4.4800    -0.1200     0.3170 h1         1 CN5       0.019200
     86 HAA          5.0010    -0.6110    -1.2990 h1         1 CN5       0.019200
     87 HB           4.9170    -2.3780     1.2110 h1         1 CN5       0.082700
     88 HOA          5.2080    -4.1170    -0.3590 ho         1 CN5       0.424000
     89 HC           3.0920    -2.7830    -1.2020 h1         1 CN5       0.018700
     90 HCA          2.6830    -1.6060     0.0480 h1         1 CN5       0.018700
     91 O3           6.5100    -0.5310     0.1720 os         1 CN5      -0.578400
@<TRIPOS>BOND
     1     1     2 1   
     2     1     3 1   
     3     1     4 1   
     4     1     5 1   
     5     2     6 1   
     6     4    40 1   
     7     6     7 1   
     8     6    41 1   
     9     6    42 1   
    10     7     8 1   
    11     7    43 1   
    12     7    44 1   
    13     8     9 1   
    14     8    45 1   
    15     8    46 1   
    16     9    11 1   
    17    10    11 2   
    18    11    12 1   
    19    12    13 1   
    20    12    47 1   
    21    12    48 1   
    22    13    14 1   
    23    13    49 1   
    24    13    50 1   
    25    14    15 1   
    26    14    51 1   
    27    14    52 1   
    28    15    16 1   
    29    15    53 1   
    30    15    54 1   
    31    16    17 1   
    32    16    55 1   
    33    16    56 1   
    34    17    18 1   
    35    17    57 1   
    36    17    58 1   
    37    18    19 1   
    38    18    59 1   
    39    18    60 1   
    40    19    20 1   
    41    19    61 1   
    42    19    62 1   
    43    20    21 1   
    44    20    63 1   
    45    20    64 1   
    46    21    22 1   
    47    21    65 1   
    48    21    66 1   
    49    22    23 1   
    50    22    67 1   
    51    22    68 1   
    52    23    24 1   
    53    23    69 1   
    54    23    70 1   
    55    24    25 1   
    56    24    71 1   
    57    24    72 1   
    58    25    73 1   
    59    25    74 1   
    60    25    75 1   
    61    26    27 1   
    62    26    28 1   
    63    26    29 1   
    64    26    91 1   
    65    27    30 1   
    66    30    31 1   
    67    30    76 1   
    68    30    77 1   
    69    31    32 1   
    70    31    78 1   
    71    31    79 1   
    72    32    33 1   
    73    32    80 1   
    74    32    81 1   
    75    33    35 1   
    76    34    35 2   
    77    35    36 1   
    78    36    82 1   
    79    36    83 1   
    80    36    84 1   
    81    37    38 1   
    82    37    85 1   
    83    37    86 1   
    84    37    91 1   
    85    38    39 1   
    86    38    40 1   
    87    38    87 1   
    88    39    88 1   
    89    40    89 1   
    90    40    90 1   
@<TRIPOS>SUBSTRUCTURE
     1 CN5         1 TEMP              0 ****  ****    0 ROOT
