@<TRIPOS>MOLECULE
CN5
   91    90     1     0     0
SMALL
abcg2


@<TRIPOS>ATOM
      1 P            2.7680    -4.0770     0.0160 p5         1 CN5       1.397800
      2 O11          1.4160    -3.1660     0.2130 os         1 CN5      -0.577400
      3 O12          2.9710    -4.9650     1.2050 o          1 CN5      -0.837000
      4 O13          3.7620    -2.7730     0.1010 os         1 CN5      -0.577400
      5 O14          2.8040    -4.6630    -1.3630 o          1 CN5      -0.837000
      6 C1           0.1670    -3.8280     0.1380 c3         1 CN5       0.226600
      7 C2          -0.9370    -2.7870     0.1810 c3         1 CN5      -0.093400
      8 C3          -2.2950    -3.4500     0.0760 c3         1 CN5       0.162600
      9 O31         -3.2840    -2.4180     0.1610 os         1 CN5      -0.448100
     10 O32         -4.9290    -3.8960    -0.1390 o          1 CN5      -0.505000
     11 C31         -4.5630    -2.7640     0.0580 c          1 CN5       0.594100
     12 C32         -5.4680    -1.5770     0.2430 c3         1 CN5      -0.143400
     13 C33         -6.9260    -1.8510    -0.0890 c3         1 CN5      -0.066400
     14 C34         -7.8010    -0.6330     0.1840 c3         1 CN5      -0.077400
     15 C35         -9.2690    -0.8640    -0.1460 c3         1 CN5      -0.073400
     16 C36        -10.1430     0.3470     0.1540 c3         1 CN5      -0.075400
     17 C37        -11.6140     0.1290    -0.1740 c3         1 CN5      -0.074400
     18 C38        -12.4840     1.3390     0.1410 c3         1 CN5      -0.074400
     19 C39        -13.9570     1.1270    -0.1840 c3         1 CN5      -0.074400
     20 C3A        -14.8250     2.3370     0.1410 c3         1 CN5      -0.074400
     21 C3B        -16.2980     2.1280    -0.1830 c3         1 CN5      -0.074400
     22 C3C        -17.1660     3.3360     0.1470 c3         1 CN5      -0.074400
     23 C3D        -18.6390     3.1260    -0.1750 c3         1 CN5      -0.075400
     24 C3E        -19.5100     4.3310     0.1580 c3         1 CN5      -0.075400
     25 C3F        -20.9800     4.1050    -0.1660 c3         1 CN5      -0.088100
     26 P1           9.6190    -0.6140    -0.4710 p5         1 CN5       1.397800
     27 O1           9.7540     0.9640    -0.0370 os         1 CN5      -0.577400
     28 O2           9.7060    -0.7530    -1.9610 o          1 CN5      -0.837000
     29 O4          10.4850    -1.4680     0.4040 o          1 CN5      -0.837000
     30 C5          10.9950     1.6020    -0.2720 c3         1 CN5       0.227600
     31 C6          10.8500     3.0780     0.0500 c3         1 CN5      -0.093400
     32 C7          12.1540     3.8060    -0.1990 c3         1 CN5       0.161600
     33 O41         11.9460     5.1850     0.1270 os         1 CN5      -0.447100
     34 O42         14.0580     5.6800    -0.3990 o          1 CN5      -0.507000
     35 C41         12.9670     6.0230    -0.0140 c          1 CN5       0.593100
     36 C42         12.5830     7.4220     0.3630 c3         1 CN5      -0.158100
     37 CA           7.3650    -1.9090    -0.2200 c3         1 CN5       0.181600
     38 CB           5.9140    -1.7420     0.2020 c3         1 CN5       0.158300
     39 OA           5.7860    -1.4100     1.5630 oh         1 CN5      -0.640000
     40 CC           5.1310    -2.9910    -0.1680 c3         1 CN5       0.182600
     41 H1           0.0920    -4.4120    -0.7870 h1         1 CN5       0.016700
     42 H1A          0.0490    -4.5290     0.9730 h1         1 CN5       0.016700
     43 H2          -0.8710    -2.2220     1.1140 hc         1 CN5       0.059700
     44 H2A         -0.8050    -2.0830    -0.6450 hc         1 CN5       0.059700
     45 H3          -2.3920    -3.9880    -0.8710 h1         1 CN5       0.044200
     46 H3A         -2.4410    -4.1700     0.8850 h1         1 CN5       0.044200
     47 H32         -5.3730    -1.2550     1.2860 hc         1 CN5       0.069700
     48 H32A        -5.0860    -0.7430    -0.3530 hc         1 CN5       0.069700
     49 H33         -7.0200    -2.1400    -1.1390 hc         1 CN5       0.050700
     50 H33A        -7.2890    -2.6970     0.4990 hc         1 CN5       0.050700
     51 H34         -7.7060    -0.3490     1.2380 hc         1 CN5       0.036700
     52 H34A        -7.4290     0.2220    -0.3920 hc         1 CN5       0.036700
     53 H35         -9.3670    -1.1310    -1.2050 hc         1 CN5       0.038200
     54 H35A        -9.6380    -1.7270     0.4180 hc         1 CN5       0.038200
     55 H36        -10.0440     0.6100     1.2130 hc         1 CN5       0.037200
     56 H36A        -9.7710     1.2120    -0.4060 hc         1 CN5       0.037200
     57 H37        -11.7160    -0.1260    -1.2350 hc         1 CN5       0.036700
     58 H37A       -11.9860    -0.7400     0.3820 hc         1 CN5       0.036700
     59 H38        -12.3810     1.5920     1.2020 hc         1 CN5       0.037200
     60 H38A       -12.1110     2.2080    -0.4130 hc         1 CN5       0.037200
     61 H39        -14.0630     0.8790    -1.2460 hc         1 CN5       0.036700
     62 H39A       -14.3290     0.2560     0.3670 hc         1 CN5       0.036700
     63 H3AA       -14.7190     2.5840     1.2040 hc         1 CN5       0.036700
     64 H3AB       -14.4520     3.2090    -0.4080 hc         1 CN5       0.036700
     65 H3B        -16.4050     1.8840    -1.2460 hc         1 CN5       0.036700
     66 H3BA       -16.6690     1.2550     0.3650 hc         1 CN5       0.036700
     67 H3C        -17.0580     3.5800     1.2100 hc         1 CN5       0.036700
     68 H3CA       -16.7950     4.2100    -0.4010 hc         1 CN5       0.036700
     69 H3D        -18.7480     2.8830    -1.2380 hc         1 CN5       0.036700
     70 H3DA       -19.0090     2.2510     0.3710 hc         1 CN5       0.036700
     71 H3E        -19.4010     4.5730     1.2200 hc         1 CN5       0.036700
     72 H3EA       -19.1420     5.2050    -0.3900 hc         1 CN5       0.036700
     73 H3F        -21.5850     4.9790     0.0790 hc         1 CN5       0.029700
     74 H3FA       -21.1210     3.8910    -1.2270 hc         1 CN5       0.029700
     75 H3FB       -21.3800     3.2590     0.3950 hc         1 CN5       0.029700
     76 H5          11.7830     1.1600     0.3510 h1         1 CN5       0.016200
     77 H1'A        11.3050     1.4790    -1.3160 h1         1 CN5       0.016200
     78 H6          10.0610     3.5090    -0.5720 hc         1 CN5       0.059700
     79 H2'A        10.5530     3.1960     1.0950 hc         1 CN5       0.059700
     80 H7          12.9550     3.3940     0.4200 h1         1 CN5       0.043700
     81 H3'A        12.4590     3.7120    -1.2440 h1         1 CN5       0.043700
     82 H42         13.4350     8.0890     0.2700 hc         1 CN5       0.061033
     83 H42A        11.7790     7.7810    -0.2810 hc         1 CN5       0.061033
     84 H42B        12.2130     7.4550     1.3880 hc         1 CN5       0.061033
     85 HA           7.4010    -2.1820    -1.2800 h1         1 CN5       0.019200
     86 HAA          7.8210    -2.7360     0.3410 h1         1 CN5       0.019200
     87 HB           5.4930    -0.8950    -0.3510 h1         1 CN5       0.082700
     88 HOA          6.1480    -2.1310     2.0900 ho         1 CN5       0.424000
     89 HC           5.5180    -3.8480     0.4010 h1         1 CN5       0.018700
     90 HCA          5.2880    -3.2140    -1.2290 h1         1 CN5       0.018700
     91 O3           8.0540    -0.6990     0.0160 os         1 CN5      -0.578400
@<TRIPOS>BOND
     1     1     2 1   
     2     1     3 1   
     3     1     4 1   
     4     1     5 1   
     5     2     6 1   
     6     4    40 1   
     7     6     7 1   
     8     6    41 1   
     9     6    42 1   
    10     7     8 1   
    11     7    43 1   
    12     7    44 1   
    13     8     9 1   
    14     8    45 1   
    15     8    46 1   
    16     9    11 1   
    17    10    11 2   
    18    11    12 1   
    19    12    13 1   
    20    12    47 1   
    21    12    48 1   
    22    13    14 1   
    23    13    49 1   
    24    13    50 1   
    25    14    15 1   
    26    14    51 1   
    27    14    52 1   
    28    15    16 1   
    29    15    53 1   
    30    15    54 1   
    31    16    17 1   
    32    16    55 1   
    33    16    56 1   
    34    17    18 1   
    35    17    57 1   
    36    17    58 1   
    37    18    19 1   
    38    18    59 1   
    39    18    60 1   
    40    19    20 1   
    41    19    61 1   
    42    19    62 1   
    43    20    21 1   
    44    20    63 1   
    45    20    64 1   
    46    21    22 1   
    47    21    65 1   
    48    21    66 1   
    49    22    23 1   
    50    22    67 1   
    51    22    68 1   
    52    23    24 1   
    53    23    69 1   
    54    23    70 1   
    55    24    25 1   
    56    24    71 1   
    57    24    72 1   
    58    25    73 1   
    59    25    74 1   
    60    25    75 1   
    61    26    27 1   
    62    26    28 1   
    63    26    29 1   
    64    26    91 1   
    65    27    30 1   
    66    30    31 1   
    67    30    76 1   
    68    30    77 1   
    69    31    32 1   
    70    31    78 1   
    71    31    79 1   
    72    32    33 1   
    73    32    80 1   
    74    32    81 1   
    75    33    35 1   
    76    34    35 2   
    77    35    36 1   
    78    36    82 1   
    79    36    83 1   
    80    36    84 1   
    81    37    38 1   
    82    37    85 1   
    83    37    86 1   
    84    37    91 1   
    85    38    39 1   
    86    38    40 1   
    87    38    87 1   
    88    39    88 1   
    89    40    89 1   
    90    40    90 1   
@<TRIPOS>SUBSTRUCTURE
     1 CN5         1 TEMP              0 ****  ****    0 ROOT
