@<TRIPOS>MOLECULE
CN7
   76    81     1     0     0
SMALL
abcg2


@<TRIPOS>ATOM
      1 C4          -6.1870    -2.2990    -1.8630 ca         1 CN7      -0.121000
      2 C5          -0.7580    -3.7160     1.1900 ca         1 CN7      -0.162000
      3 C6           8.3320     0.5540     1.9330 ca         1 CN7      -0.058000
      4 C7           9.5620     0.1090    -1.5360 ca         1 CN7      -0.122000
      5 C8           6.8140    -0.1380    -1.9370 ca         1 CN7      -0.056000
      6 C10          9.1970     0.4530     0.8820 ca         1 CN7      -0.163000
      7 C13         -6.1480    -2.3740    -0.4790 ca         1 CN7      -0.121000
      8 C15          8.6970     0.2200    -0.4230 ca         1 CN7      -0.003000
      9 C17         -0.3170    -1.3720     1.0720 ca         1 CN7      -0.089800
     10 C20         -4.9430    -2.3170     0.2200 ca         1 CN7      -0.063300
     11 C21          0.3330    -0.1100     1.1870 cc         1 CN7      -0.176400
     12 C22         -1.5770    -1.1530     0.4610 ca         1 CN7      -0.041200
     13 C24         -0.5310     0.8250     0.6790 cd         1 CN7      -0.063300
     14 C26         -5.7390     2.8040     0.8430 c6         1 CN7       0.131300
     15 C28         -6.7410     3.6340     0.0610 c6         1 CN7       0.154100
     16 C1           9.0680    -0.1150    -2.7930 ca         1 CN7      -0.099000
     17 C2           7.6800    -0.2400    -2.9940 ca         1 CN7      -0.140000
     18 C3          -5.0050    -2.1600    -2.5770 ca         1 CN7      -0.125000
     19 C9           0.0880    -2.6580     1.4400 ca         1 CN7      -0.071000
     20 C11         -3.7990    -2.1050    -1.8950 ca         1 CN7      -0.099000
     21 C12         -1.9940    -3.4960     0.5700 ca         1 CN7      -0.114000
     22 C14          6.9390     0.4320     1.7500 ca         1 CN7      -0.233000
     23 C16          7.2990     0.0940    -0.6290 ca         1 CN7      -0.065000
     24 C18         -3.7530    -2.1770    -0.5040 cp         1 CN7      -0.007000
     25 C19         -2.4350    -2.2360     0.1850 cp         1 CN7      -0.068000
     26 C23          6.4250     0.2050     0.4960 ca         1 CN7       0.187100
     27 C27         -5.8500     1.1490    -0.8450 c6         1 CN7       0.131300
     28 C29         -6.8460     2.0070    -1.5990 c6         1 CN7       0.154100
     29 C30         -4.9380    -2.4230     1.7180 c3         1 CN7      -0.045800
     30 C32          2.7910    -0.0210     0.6770 c3         1 CN7      -0.082400
     31 C34         -3.9080     1.2450     0.5920 c3         1 CN7       0.150800
     32 C35          4.1700     0.1670     1.2710 c3         1 CN7       0.163600
     33 N36         -1.6890     0.1990     0.2420 na         1 CN7      -0.071700
     34 N37         -4.9590     1.9910    -0.0690 n3         1 CN7      -0.712600
     35 O38          0.8680     2.6800     0.4390 o          1 CN7      -0.703000
     36 O39         -7.5910     2.8250    -0.7240 os         1 CN7      -0.467000
     37 O40         -1.2900     3.0580     0.8360 o          1 CN7      -0.703000
     38 O41          5.1200     0.0730     0.2200 os         1 CN7      -0.342100
     39 H1          -7.1360    -2.3460    -2.3800 ha         1 CN7       0.102000
     40 H2          -0.4710    -4.7230     1.4610 ha         1 CN7       0.093000
     41 H5           5.7510    -0.2370    -2.1080 ha         1 CN7       0.135000
     42 H6          10.2650     0.5460     1.0300 ha         1 CN7       0.105000
     43 H7          -7.0730    -2.4780     0.0770 ha         1 CN7       0.103000
     44 H8          -5.0760     3.4770     1.3910 h1         1 CN7       0.041200
     45 H9          -6.2730     2.1910     1.5910 h1         1 CN7       0.041200
     46 H10         -7.3720     4.2050     0.7430 h1         1 CN7       0.043200
     47 H11         -6.1970     4.3480    -0.5740 h1         1 CN7       0.043200
     48 H12          9.7430    -0.1970    -3.6350 ha         1 CN7       0.102000
     49 H13          7.2960    -0.4180    -3.9900 ha         1 CN7       0.108000
     50 H14         -5.0200    -2.1020    -3.6570 ha         1 CN7       0.105000
     51 H15          1.0500    -2.8190     1.9110 ha         1 CN7       0.103000
     52 H16         -2.8740    -2.0090    -2.4510 ha         1 CN7       0.121000
     53 H17         -2.6410    -4.3430     0.3740 ha         1 CN7       0.093000
     54 H18          6.2930     0.5180     2.6130 ha         1 CN7       0.121000
     55 H19         -6.3900     0.4330    -0.2030 h1         1 CN7       0.041200
     56 H20         -5.2870     0.5530    -1.5650 h1         1 CN7       0.041200
     57 H21         -6.3110     2.6210    -2.3370 h1         1 CN7       0.043200
     58 H22         -7.5550     1.3750    -2.1370 h1         1 CN7       0.043200
     59 H23         -4.6290    -3.4170     2.0460 hc         1 CN7       0.043367
     60 H24         -4.2470    -1.7130     2.1730 hc         1 CN7       0.043367
     61 H25         -5.9310    -2.2350     2.1250 hc         1 CN7       0.043367
     62 H28          2.7340    -0.9960     0.1860 hc         1 CN7       0.066700
     63 H29          2.6070     0.7440    -0.0790 hc         1 CN7       0.066700
     64 H32         -4.2930     0.3450     1.0960 h1         1 CN7       0.053200
     65 H33         -3.4590     1.8790     1.3560 h1         1 CN7       0.053200
     66 H34          4.2440     1.1450     1.7610 h1         1 CN7       0.031700
     67 H35          4.3710    -0.5980     2.0310 h1         1 CN7       0.031700
     68 C25         -0.3070     2.3200     0.6360 c          1 CN7       0.722200
     69 C33         -2.8040     0.8740    -0.3930 c3         1 CN7       0.086600
     70 H3           8.7090     0.7340     2.9310 ha         1 CN7       0.102000
     71 H30         -3.1790     0.2380    -1.1910 h1         1 CN7       0.067200
     72 H31         -2.4410     1.7830    -0.8620 h1         1 CN7       0.067200
     73 C31          1.7040     0.0860     1.7480 c3         1 CN7       0.030800
     74 H4          10.6300     0.2040    -1.3770 ha         1 CN7       0.104000
     75 H26          1.7800     1.0570     2.2400 hc         1 CN7       0.036700
     76 H27          1.8840    -0.6680     2.5200 hc         1 CN7       0.036700
@<TRIPOS>BOND
     1     1     7 ar  
     2     1    18 ar  
     3     1    39 1   
     4     2    19 ar  
     5     2    21 ar  
     6     2    40 1   
     7     3     6 ar  
     8     3    22 ar  
     9     3    70 1   
    10     4     8 ar  
    11     4    16 ar  
    12     4    74 1   
    13     5    17 ar  
    14     5    23 ar  
    15     5    41 1   
    16     6     8 ar  
    17     6    42 1   
    18     7    10 ar  
    19     7    43 1   
    20     8    23 ar  
    21     9    11 1   
    22     9    12 ar  
    23     9    19 ar  
    24    10    24 ar  
    25    10    29 1   
    26    11    13 2   
    27    11    73 1   
    28    12    25 ar  
    29    12    33 1   
    30    13    33 1   
    31    13    68 1   
    32    14    15 1   
    33    14    34 1   
    34    14    44 1   
    35    14    45 1   
    36    15    36 1   
    37    15    46 1   
    38    15    47 1   
    39    16    17 ar  
    40    16    48 1   
    41    17    49 1   
    42    18    20 ar  
    43    18    50 1   
    44    19    51 1   
    45    20    24 ar  
    46    20    52 1   
    47    21    25 ar  
    48    21    53 1   
    49    22    26 ar  
    50    22    54 1   
    51    23    26 ar  
    52    24    25 1   
    53    26    38 1   
    54    27    28 1   
    55    27    34 1   
    56    27    55 1   
    57    27    56 1   
    58    28    36 1   
    59    28    57 1   
    60    28    58 1   
    61    29    59 1   
    62    29    60 1   
    63    29    61 1   
    64    30    32 1   
    65    30    62 1   
    66    30    63 1   
    67    30    73 1   
    68    31    34 1   
    69    31    64 1   
    70    31    65 1   
    71    31    69 1   
    72    32    38 1   
    73    32    66 1   
    74    32    67 1   
    75    33    69 1   
    76    35    68 1   
    77    37    68 1   
    78    69    71 1   
    79    69    72 1   
    80    73    75 1   
    81    73    76 1   
@<TRIPOS>SUBSTRUCTURE
     1 CN7         1 TEMP              0 ****  ****    0 ROOT
