@<TRIPOS>MOLECULE
CN7
   76    81     1     0     0
SMALL
No Charge or Current Charge


@<TRIPOS>ATOM
      1 C4          -6.5900    -2.1460    -1.0030 ca         1 CN7      -0.121000
      2 C5          -0.5810    -3.9380     0.6370 ca         1 CN7      -0.162000
      3 C6           8.4890     0.2710     1.9500 ca         1 CN7      -0.058000
      4 C7           9.6020     0.3830    -1.5960 ca         1 CN7      -0.122000
      5 C8           6.8190     0.2020    -1.9400 ca         1 CN7      -0.056000
      6 C10          9.3180     0.3380     0.8210 ca         1 CN7      -0.163000
      7 C13         -6.2310    -2.0780     0.3530 ca         1 CN7      -0.121000
      8 C15          8.7610     0.3150    -0.4690 ca         1 CN7      -0.003000
      9 C17         -0.2650    -1.5730     0.9560 ca         1 CN7      -0.089800
     10 C20         -4.8760    -2.1230     0.7400 ca         1 CN7      -0.063300
     11 C21          0.3290    -0.3240     1.3320 cc         1 CN7      -0.176400
     12 C22         -1.5220    -1.3250     0.4950 ca         1 CN7      -0.041200
     13 C24         -0.6200     0.6750     1.0210 cd         1 CN7      -0.063300
     14 C26         -5.9850     2.7920     0.4290 c6         1 CN7       0.131300
     15 C28         -6.9510     3.6580    -0.4340 c6         1 CN7       0.154100
     16 C1           9.0560     0.3610    -2.8890 ca         1 CN7      -0.099000
     17 C2           7.6660     0.2700    -3.0600 ca         1 CN7      -0.140000
     18 C3          -5.5960    -2.2560    -1.9870 ca         1 CN7      -0.125000
     19 C9           0.2500    -2.8750     1.0340 ca         1 CN7      -0.071000
     20 C11         -4.2450    -2.3020    -1.6110 ca         1 CN7      -0.099000
     21 C12         -1.9010    -3.6850     0.2010 ca         1 CN7      -0.114000
     22 C14          7.0970     0.1800     1.7960 ca         1 CN7      -0.233000
     23 C16          7.3580     0.2240    -0.6340 ca         1 CN7      -0.065000
     24 C18         -3.8620    -2.2190    -0.2510 cp         1 CN7      -0.007000
     25 C19         -2.4270    -2.3660     0.1260 cp         1 CN7      -0.068000
     26 C23          6.5210     0.1550     0.5060 ca         1 CN7       0.187100
     27 C27         -5.6570     1.3040    -1.4960 c6         1 CN7       0.131300
     28 C29         -6.6300     2.1980    -2.3230 c6         1 CN7       0.154100
     29 C30         -4.5250    -2.0910     2.2240 c3         1 CN7      -0.045800
     30 C32          2.8110    -0.1020     0.8380 c3         1 CN7      -0.082400
     31 C34         -4.0280     1.2670     0.4040 c3         1 CN7       0.150800
     32 C35          4.2310    -0.0110     1.4260 c3         1 CN7       0.163600
     33 N36         -1.7920     0.0480     0.4800 na         1 CN7      -0.071700
     34 N37         -4.9730     2.0790    -0.4120 n3         1 CN7      -0.712600
     35 O38          0.6870     2.5800     1.5900 o          1 CN7      -0.703000
     36 O39         -7.5870     2.8440    -1.4500 os         1 CN7      -0.467000
     37 O40         -1.2960     2.9390     0.9130 o          1 CN7      -0.703000
     38 O41          5.1520     0.0660     0.3250 os         1 CN7      -0.342100
     39 H1          -7.6390    -2.1150    -1.2900 ha         1 CN7       0.102000
     40 H2          -0.2140    -4.9600     0.6870 ha         1 CN7       0.093000
     41 H5           5.7440     0.1320    -2.0960 ha         1 CN7       0.135000
     42 H6          10.3960     0.4080     0.9510 ha         1 CN7       0.105000
     43 H7          -7.0120    -2.0020     1.1070 ha         1 CN7       0.103000
     44 H8          -5.4830     3.4460     1.1570 h1         1 CN7       0.041200
     45 H9          -6.5810     2.0680     1.0050 h1         1 CN7       0.041200
     46 H10         -7.7260     4.1050     0.2040 h1         1 CN7       0.043200
     47 H11         -6.3940     4.4720    -0.9190 h1         1 CN7       0.043200
     48 H12          9.7100     0.4140    -3.7570 ha         1 CN7       0.102000
     49 H13          7.2420     0.2530    -4.0620 ha         1 CN7       0.108000
     50 H14         -5.8730    -2.3160    -3.0370 ha         1 CN7       0.105000
     51 H15          1.2580    -3.0640     1.3950 ha         1 CN7       0.103000
     52 H16         -3.4790    -2.4080    -2.3760 ha         1 CN7       0.121000
     53 H17         -2.5370    -4.5250    -0.0670 ha         1 CN7       0.093000
     54 H18          6.4820     0.1290     2.6900 ha         1 CN7       0.121000
     55 H19         -6.2350     0.4790    -1.0590 h1         1 CN7       0.041200
     56 H20         -4.9250     0.8600    -2.1850 h1         1 CN7       0.041200
     57 H21         -6.0620     2.9640    -2.8700 h1         1 CN7       0.043200
     58 H22         -7.1700     1.5830    -3.0560 h1         1 CN7       0.043200
     59 H23         -4.0730    -3.0390     2.5380 hc         1 CN7       0.043367
     60 H24         -3.8080    -1.2910     2.4450 hc         1 CN7       0.043367
     61 H25         -5.4080    -1.9210     2.8500 hc         1 CN7       0.043367
     62 H28          2.7500    -0.9770     0.1790 hc         1 CN7       0.066700
     63 H29          2.6210     0.7830     0.2200 hc         1 CN7       0.066700
     64 H32         -4.5660     0.4400     0.8790 h1         1 CN7       0.053200
     65 H33         -3.6370     1.8870     1.2220 h1         1 CN7       0.053200
     66 H34          4.3090     0.8820     2.0600 h1         1 CN7       0.031700
     67 H35          4.4320    -0.9000     2.0370 h1         1 CN7       0.031700
     68 C25         -0.3910     2.1660     1.1880 c          1 CN7       0.722200
     69 C33         -2.8150     0.6990    -0.3750 c3         1 CN7       0.086600
     70 H3           8.9270     0.2890     2.9470 ha         1 CN7       0.102000
     71 H30         -3.1490     0.0050    -1.1490 h1         1 CN7       0.067200
     72 H31         -2.3330     1.5250    -0.9100 h1         1 CN7       0.067200
     73 C31          1.7190    -0.2080     1.9210 c3         1 CN7       0.030800
     74 H4          10.6800     0.4540    -1.4700 ha         1 CN7       0.104000
     75 H26          1.7920     0.6350     2.6160 hc         1 CN7       0.036700
     76 H27          1.9240    -1.0920     2.5360 hc         1 CN7       0.036700
@<TRIPOS>BOND
     1     1     7 ar  
     2     1    18 ar  
     3     1    39 1   
     4     2    19 ar  
     5     2    21 ar  
     6     2    40 1   
     7     3     6 ar  
     8     3    22 ar  
     9     3    70 1   
    10     4     8 ar  
    11     4    16 ar  
    12     4    74 1   
    13     5    17 ar  
    14     5    23 ar  
    15     5    41 1   
    16     6     8 ar  
    17     6    42 1   
    18     7    10 ar  
    19     7    43 1   
    20     8    23 ar  
    21     9    11 1   
    22     9    12 ar  
    23     9    19 ar  
    24    10    24 ar  
    25    10    29 1   
    26    11    13 2   
    27    11    73 1   
    28    12    25 ar  
    29    12    33 1   
    30    13    33 1   
    31    13    68 1   
    32    14    15 1   
    33    14    34 1   
    34    14    44 1   
    35    14    45 1   
    36    15    36 1   
    37    15    46 1   
    38    15    47 1   
    39    16    17 ar  
    40    16    48 1   
    41    17    49 1   
    42    18    20 ar  
    43    18    50 1   
    44    19    51 1   
    45    20    24 ar  
    46    20    52 1   
    47    21    25 ar  
    48    21    53 1   
    49    22    26 ar  
    50    22    54 1   
    51    23    26 ar  
    52    24    25 1   
    53    26    38 1   
    54    27    28 1   
    55    27    34 1   
    56    27    55 1   
    57    27    56 1   
    58    28    36 1   
    59    28    57 1   
    60    28    58 1   
    61    29    59 1   
    62    29    60 1   
    63    29    61 1   
    64    30    32 1   
    65    30    62 1   
    66    30    63 1   
    67    30    73 1   
    68    31    34 1   
    69    31    64 1   
    70    31    65 1   
    71    31    69 1   
    72    32    38 1   
    73    32    66 1   
    74    32    67 1   
    75    33    69 1   
    76    35    68 1   
    77    37    68 1   
    78    69    71 1   
    79    69    72 1   
    80    73    75 1   
    81    73    76 1   
@<TRIPOS>SUBSTRUCTURE
     1 CN7         1 TEMP              0 ****  ****    0 ROOT
