@<TRIPOS>MOLECULE
CN8
   66    68     1     0     0
SMALL
bcc


@<TRIPOS>ATOM
      1 O5          -8.2070     2.2880    -0.9030 o          1 CN8      -0.576100
      2 C29         -8.6540     1.4330    -0.1520 c          1 CN8       0.670100
      3 N8          -9.4670     1.7160     0.8760 ns         1 CN8      -0.584900
      4 C30         -9.8580     3.0640     1.2370 c3         1 CN8       0.107000
      5 C31        -10.9160     3.0360     2.3240 c3         1 CN8      -0.112100
      6 C27         -8.2770    -0.0360    -0.2720 c5         1 CN8       0.081500
      7 N7          -7.9650    -0.3950    -1.6530 n7         1 CN8      -0.760200
      8 C26         -6.5260    -0.5740    -1.7360 c5         1 CN8       0.128800
      9 C28         -7.0050    -0.3080     0.5750 c5         1 CN8      -0.113400
     10 C25         -6.1190    -1.1220    -0.3640 c5         1 CN8       0.073700
     11 N6          -4.7190    -1.0030    -0.0380 ns         1 CN8      -0.555900
     12 C16         -3.7860    -1.8680    -0.4590 c          1 CN8       0.627100
     13 O4          -4.0420    -2.8640    -1.1230 o          1 CN8      -0.613100
     14 C15         -2.3430    -1.5280    -0.0720 c3         1 CN8       0.099500
     15 N5          -1.6000    -2.6800     0.3700 n7         1 CN8      -0.803200
     16 C17         -2.0590    -3.2290     1.6300 c3         1 CN8       0.144100
     17 C14         -1.6570    -0.8870    -1.2880 c3         1 CN8      -0.083700
     18 C12         -0.3220    -0.3230    -0.9520 cc         1 CN8       0.267600
     19 N4          -0.0640     1.0030    -0.9940 nc         1 CN8      -0.365000
     20 N3           1.1550     1.2180    -0.6310 nd         1 CN8      -0.197800
     21 C13          0.8250    -0.9510    -0.5340 cd         1 CN8      -0.218600
     22 N2           1.7020     0.0500    -0.3470 na         1 CN8       0.098400
     23 C11          3.0910    -0.0340     0.0490 c3         1 CN8       0.027300
     24 C10          4.0200     0.1240    -1.1550 c3         1 CN8       0.089000
     25 N1           5.4030    -0.0180    -0.7730 ns         1 CN8      -0.577900
     26 C9           6.1070     0.9860    -0.2190 c          1 CN8       0.679700
     27 O1           5.6300     2.1000    -0.0490 o          1 CN8      -0.588100
     28 C4           7.5160     0.6800     0.1700 ca         1 CN8      -0.159600
     29 C3           8.3930     1.7480     0.3500 ca         1 CN8      -0.073500
     30 C2           9.7080     1.5350     0.7190 ca         1 CN8      -0.139000
     31 C1          10.1740     0.2370     0.9310 ca         1 CN8       0.066900
     32 S1          11.8550     0.0340     1.4030 sh         1 CN8      -0.281700
     33 C6           9.3000    -0.8360     0.7720 ca         1 CN8      -0.139000
     34 C5           7.9870    -0.6110     0.3930 ca         1 CN8      -0.073500
     35 H8          -9.7890     0.9600     1.4590 hn         1 CN8       0.307500
     36 H27         -9.1040    -0.6520     0.0870 h1         1 CN8       0.051700
     37 H301        -8.9870     3.6310     1.5780 h1         1 CN8       0.051200
     38 H302       -10.2440     3.5780     0.3550 h1         1 CN8       0.051200
     39 H311       -11.8130     2.5120     1.9920 hc         1 CN8       0.041367
     40 H312       -10.5480     2.5450     3.2260 hc         1 CN8       0.041367
     41 H313       -11.2020     4.0520     2.5930 hc         1 CN8       0.041367
     42 H7          -8.4200    -1.2710    -1.8710 hn         1 CN8       0.353800
     43 H281        -6.5000     0.6260     0.8410 hc         1 CN8       0.059200
     44 H282        -7.2360    -0.8270     1.5040 hc         1 CN8       0.059200
     45 H261        -6.2630    -1.2400    -2.5570 h1         1 CN8       0.074200
     46 H262        -6.0290     0.3860    -1.9100 h1         1 CN8       0.074200
     47 H25         -6.3980    -2.1770    -0.3120 h1         1 CN8       0.071700
     48 H6          -4.4210    -0.1860     0.4720 hn         1 CN8       0.320500
     49 H15         -2.3480    -0.7960     0.7440 h1         1 CN8       0.071700
     50 H5          -1.6390    -3.3940    -0.3480 hn         1 CN8       0.373800
     51 H141        -1.5720    -1.6360    -2.0810 hc         1 CN8       0.068700
     52 H142        -2.2810    -0.0820    -1.6800 hc         1 CN8       0.068700
     53 H171        -1.9370    -2.4870     2.4210 h1         1 CN8       0.033367
     54 H172        -3.1090    -3.5510     1.6380 h1         1 CN8       0.033367
     55 H173        -1.4500    -4.0920     1.8950 h1         1 CN8       0.033367
     56 H13          1.0650    -1.9840    -0.3530 h4         1 CN8       0.191000
     57 H111         3.2820     0.7410     0.7900 h1         1 CN8       0.076700
     58 H112         3.2440    -1.0020     0.5220 h1         1 CN8       0.076700
     59 H101         3.7980    -0.6430    -1.8960 h1         1 CN8       0.070700
     60 H102         3.8580     1.0950    -1.6250 h1         1 CN8       0.070700
     61 H1           5.8460    -0.9010    -0.9620 hn         1 CN8       0.318500
     62 H3           8.0480     2.7610     0.1940 ha         1 CN8       0.142500
     63 HA           7.3360    -1.4720     0.3030 ha         1 CN8       0.142500
     64 H2          10.3710     2.3820     0.8420 ha         1 CN8       0.142000
     65 HB          11.8660    -1.3010     1.4690 hs         1 CN8       0.201800
     66 HC           9.6370    -1.8490     0.9480 ha         1 CN8       0.142000
@<TRIPOS>BOND
     1     1     2 2   
     2     2     3 1   
     3     2     6 1   
     4     3     4 1   
     5     3    35 1   
     6     4     5 1   
     7     4    37 1   
     8     4    38 1   
     9     5    39 1   
    10     5    40 1   
    11     5    41 1   
    12     6     7 1   
    13     6     9 1   
    14     6    36 1   
    15     7     8 1   
    16     7    42 1   
    17     8    10 1   
    18     8    45 1   
    19     8    46 1   
    20     9    10 1   
    21     9    43 1   
    22     9    44 1   
    23    10    11 1   
    24    10    47 1   
    25    11    12 1   
    26    11    48 1   
    27    12    13 2   
    28    12    14 1   
    29    14    15 1   
    30    14    17 1   
    31    14    49 1   
    32    15    16 1   
    33    15    50 1   
    34    16    53 1   
    35    16    54 1   
    36    16    55 1   
    37    17    18 1   
    38    17    51 1   
    39    17    52 1   
    40    18    19 1   
    41    18    21 2   
    42    19    20 2   
    43    20    22 1   
    44    21    22 1   
    45    21    56 1   
    46    22    23 1   
    47    23    24 1   
    48    23    57 1   
    49    23    58 1   
    50    24    25 1   
    51    24    59 1   
    52    24    60 1   
    53    25    26 1   
    54    25    61 1   
    55    26    27 2   
    56    26    28 1   
    57    28    29 ar  
    58    28    34 ar  
    59    29    30 ar  
    60    29    62 1   
    61    30    31 ar  
    62    30    64 1   
    63    31    32 1   
    64    31    33 ar  
    65    32    65 1   
    66    33    34 ar  
    67    33    66 1   
    68    34    63 1   
@<TRIPOS>SUBSTRUCTURE
     1 CN8         1 TEMP              0 ****  ****    0 ROOT
