@<TRIPOS>MOLECULE
CN8
   66    68     1     0     0
SMALL
No Charge or Current Charge


@<TRIPOS>ATOM
      1 O5          -8.7170     2.9620     0.1460 o          1 CN8      -0.576100
      2 C29         -9.0470     1.7810     0.1610 c          1 CN8       0.603100
      3 N8         -10.3060     1.3640     0.5450 ns         1 CN8      -0.517900
      4 C30        -11.3740     2.2650     0.9720 c3         1 CN8       0.107000
      5 C31        -12.6320     1.4880     1.3910 c3         1 CN8      -0.112100
      6 C27         -8.1650     0.5290    -0.2260 c5         1 CN8       0.081500
      7 N7          -7.6440     0.5040    -1.6420 n7         1 CN8      -0.815400
      8 C26         -6.2590    -0.0580    -1.5810 c5         1 CN8       0.128800
      9 C28         -6.8860     0.4840     0.6540 c5         1 CN8      -0.113400
     10 C25         -6.1030    -0.5940    -0.1260 c5         1 CN8       0.073700
     11 N6          -4.6950    -0.4180     0.2620 ns         1 CN8      -0.488900
     12 C16         -3.7650    -1.3410    -0.1870 c          1 CN8       0.560100
     13 O4          -4.0730    -2.3050    -0.8790 o          1 CN8      -0.613100
     14 C15         -2.2900    -1.0720     0.2760 c3         1 CN8       0.099500
     15 N5          -1.7090    -2.1890     1.0910 n7         1 CN8      -0.858400
     16 C17         -2.3350    -2.4100     2.4100 c3         1 CN8       0.144100
     17 C14         -1.3790    -0.7920    -0.9420 c3         1 CN8      -0.083700
     18 C12         -0.0270    -0.2470    -0.5670 cc         1 CN8       0.202300
     19 N4           0.1610     1.0840    -0.3230 nc         1 CN8      -0.365000
     20 N3           1.4230     1.2770    -0.0320 nd         1 CN8      -0.197800
     21 C13          1.1440    -0.9250    -0.4390 cd         1 CN8      -0.186000
     22 N2           2.0450     0.0560    -0.0940 na         1 CN8       0.119800
     23 C11          3.4810    -0.0990     0.1720 c3         1 CN8       0.056600
     24 C10          4.3400     0.0420    -1.1020 c3         1 CN8       0.089000
     25 N1           5.7740    -0.1520    -0.8460 ns         1 CN8      -0.510900
     26 C9           6.5850     0.7470    -0.1840 c          1 CN8       0.612700
     27 O1           6.1400     1.8080     0.2330 o          1 CN8      -0.588100
     28 C4           8.0380     0.3560    -0.0050 ca         1 CN8      -0.159600
     29 C3           8.9160     1.2400     0.6610 ca         1 CN8      -0.055500
     30 C2          10.2700     0.9080     0.8440 ca         1 CN8      -0.121000
     31 C1          10.7760    -0.3120     0.3680 ca         1 CN8      -0.060000
     32 S1          12.4950    -0.7230     0.6060 sh         1 CN8      -0.154800
     33 C6           9.9110    -1.1980    -0.2950 ca         1 CN8      -0.121000
     34 C5           8.5560    -0.8730    -0.4820 ca         1 CN8      -0.055500
     35 H8         -10.4910     0.3680     0.5210 hn         1 CN8       0.307500
     36 H27         -8.7520    -0.3830    -0.0450 h1         1 CN8       0.051700
     37 H301       -11.0170     2.8670     1.8190 h1         1 CN8       0.051200
     38 H302       -11.6200     2.9440     0.1450 h1         1 CN8       0.051200
     39 H311       -13.0160     0.8920     0.5540 hc         1 CN8       0.041367
     40 H312       -12.4120     0.8150     2.2280 hc         1 CN8       0.041367
     41 H313       -13.4190     2.1830     1.7070 hc         1 CN8       0.041367
     42 H7          -8.2510    -0.0930    -2.2210 hn         1 CN8       0.409000
     43 H281        -6.3730     1.4540     0.6680 hc         1 CN8       0.059200
     44 H282        -7.0930     0.1940     1.6900 hc         1 CN8       0.059200
     45 H261        -6.0960    -0.8460    -2.3300 h1         1 CN8       0.074200
     46 H262        -5.5300     0.7410    -1.7820 h1         1 CN8       0.074200
     47 H25         -6.5020    -1.6090     0.0140 h1         1 CN8       0.071700
     48 H6          -4.3620     0.3410     0.8450 hn         1 CN8       0.320500
     49 H15         -2.3100    -0.1530     0.8790 h1         1 CN8       0.071700
     50 H5          -1.7970    -3.0590     0.5460 hn         1 CN8       0.429000
     51 H141        -1.2600    -1.7090    -1.5320 hc         1 CN8       0.068700
     52 H142        -1.8810    -0.0710    -1.6000 hc         1 CN8       0.068700
     53 H171        -2.2650    -1.5080     3.0320 h1         1 CN8       0.033367
     54 H172        -3.3970    -2.6740     2.3050 h1         1 CN8       0.033367
     55 H173        -1.8330    -3.2290     2.9430 h1         1 CN8       0.033367
     56 H13          1.3900    -1.9730    -0.5550 h4         1 CN8       0.173000
     57 H111         3.7840     0.6550     0.9080 h1         1 CN8       0.076700
     58 H112         3.6470    -1.0880     0.6150 h1         1 CN8       0.076700
     59 H101         4.0120    -0.6990    -1.8420 h1         1 CN8       0.070700
     60 H102         4.1860     1.0400    -1.5360 h1         1 CN8       0.070700
     61 H1           6.2100    -1.0050    -1.1720 hn         1 CN8       0.318500
     62 H3           8.5530     2.1930     1.0410 ha         1 CN8       0.124500
     63 HA           7.9250    -1.5910    -1.0000 ha         1 CN8       0.124500
     64 H2          10.9280     1.6030     1.3590 ha         1 CN8       0.124000
     65 HB          12.4450    -1.9280    -0.0100 hs         1 CN8       0.201800
     66 HC          10.2890    -2.1470    -0.6690 ha         1 CN8       0.124000
@<TRIPOS>BOND
     1     1     2 2   
     2     2     3 1   
     3     2     6 1   
     4     3     4 1   
     5     3    35 1   
     6     4     5 1   
     7     4    37 1   
     8     4    38 1   
     9     5    39 1   
    10     5    40 1   
    11     5    41 1   
    12     6     7 1   
    13     6     9 1   
    14     6    36 1   
    15     7     8 1   
    16     7    42 1   
    17     8    10 1   
    18     8    45 1   
    19     8    46 1   
    20     9    10 1   
    21     9    43 1   
    22     9    44 1   
    23    10    11 1   
    24    10    47 1   
    25    11    12 1   
    26    11    48 1   
    27    12    13 2   
    28    12    14 1   
    29    14    15 1   
    30    14    17 1   
    31    14    49 1   
    32    15    16 1   
    33    15    50 1   
    34    16    53 1   
    35    16    54 1   
    36    16    55 1   
    37    17    18 1   
    38    17    51 1   
    39    17    52 1   
    40    18    19 1   
    41    18    21 2   
    42    19    20 2   
    43    20    22 1   
    44    21    22 1   
    45    21    56 1   
    46    22    23 1   
    47    23    24 1   
    48    23    57 1   
    49    23    58 1   
    50    24    25 1   
    51    24    59 1   
    52    24    60 1   
    53    25    26 1   
    54    25    61 1   
    55    26    27 2   
    56    26    28 1   
    57    28    29 ar  
    58    28    34 ar  
    59    29    30 ar  
    60    29    62 1   
    61    30    31 ar  
    62    30    64 1   
    63    31    32 1   
    64    31    33 ar  
    65    32    65 1   
    66    33    34 ar  
    67    33    66 1   
    68    34    63 1   
@<TRIPOS>SUBSTRUCTURE
     1 CN8         1 TEMP              0 ****  ****    0 ROOT
