@<TRIPOS>MOLECULE
CN9
   24    26     1     0     0
SMALL
bcc


@<TRIPOS>ATOM
      1 C10        -10.9490    26.9330    23.1240 ca         1 CN9      -0.164000
      2 C13         -9.6040    28.7310    21.3950 ca         1 CN9      -0.061000
      3 C01         -8.6850    22.7190    20.3100 c3         1 CN9      -0.143400
      4 C02         -8.4140    24.1440    19.9420 ca         1 CN9       0.404600
      5 C04         -7.3590    25.6770    18.5750 ca         1 CN9       0.367200
      6 C05         -7.8800    26.7780    19.2240 ca         1 CN9      -0.190300
      7 C06         -8.7230    26.5350    20.3050 cp         1 CN9      -0.053000
      8 C07         -8.9850    25.2010    20.6570 ca         1 CN9      -0.127500
      9 C09        -10.1310    26.4670    22.0960 ca         1 CN9       0.001800
     10 C11        -11.0760    28.3020    23.2670 ca         1 CN9      -0.090000
     11 C12        -10.4130    29.1970    22.4140 ca         1 CN9      -0.167000
     12 C14         -9.4590    27.3540    21.2290 cp         1 CN9      -0.098000
     13 N03         -7.6170    24.4080    18.9200 nb         1 CN9      -0.656000
     14 N08         -9.8310    25.1810    21.7350 na         1 CN9      -0.173300
     15 H1         -11.4640    26.2500    23.7870 ha         1 CN9       0.135000
     16 H2          -9.0920    29.4220    20.7370 ha         1 CN9       0.135000
     17 H3          -8.1480    22.0450    19.6460 hc         1 CN9       0.049367
     18 H4          -8.3760    22.5080    21.3360 hc         1 CN9       0.049367
     19 H5          -9.7510    22.4880    20.2440 hc         1 CN9       0.049367
     20 H6          -6.6980    25.8110    17.7260 h4         1 CN9       0.019100
     21 H7          -7.6360    27.7810    18.8990 ha         1 CN9       0.143000
     22 H8         -11.7040    28.6920    24.0580 ha         1 CN9       0.130000
     23 H9         -10.5380    30.2620    22.5610 ha         1 CN9       0.133000
     24 H10        -10.1880    24.3560    22.1890 hn         1 CN9       0.305700
@<TRIPOS>BOND
     1     1     9 ar  
     2     1    10 ar  
     3     1    15 1   
     4     2    11 ar  
     5     2    12 ar  
     6     2    16 1   
     7     3     4 1   
     8     3    17 1   
     9     3    18 1   
    10     3    19 1   
    11     4     8 ar  
    12     4    13 ar  
    13     5     6 ar  
    14     5    13 ar  
    15     5    20 1   
    16     6     7 ar  
    17     6    21 1   
    18     7     8 ar  
    19     7    12 1   
    20     8    14 1   
    21     9    12 ar  
    22     9    14 1   
    23    10    11 ar  
    24    10    22 1   
    25    11    23 1   
    26    14    24 1   
@<TRIPOS>SUBSTRUCTURE
     1 CN9         1 TEMP              0 ****  ****    0 ROOT
