@<TRIPOS>MOLECULE
CN9
   24    26     1     0     0
SMALL
No Charge or Current Charge


@<TRIPOS>ATOM
      1 C10        -10.9840    26.9740    23.1710 ca         1 CN9      -0.146000
      2 C13         -9.5990    28.7290    21.3840 ca         1 CN9      -0.043000
      3 C01         -8.6490    22.6550    20.2630 c3         1 CN9      -0.143400
      4 C02         -8.3970    24.1120    19.9210 ca         1 CN9       0.339300
      5 C04         -7.3360    25.6860    18.5500 ca         1 CN9       0.301900
      6 C05         -7.8970    26.7810    19.2470 ca         1 CN9      -0.107000
      7 C06         -8.7450    26.4930    20.3300 cp         1 CN9      -0.053000
      8 C07         -8.9820    25.1620    20.6500 ca         1 CN9      -0.062200
      9 C09        -10.1690    26.4940    22.1410 ca         1 CN9       0.001800
     10 C11        -11.1030    28.3750    23.3020 ca         1 CN9      -0.072000
     11 C12        -10.4160    29.2440    22.4160 ca         1 CN9      -0.149000
     12 C14         -9.4870    27.3310    21.2610 cp         1 CN9      -0.098000
     13 N03         -7.5750    24.3790    18.8720 nb         1 CN9      -0.656000
     14 N08         -9.8530    25.1810    21.7570 na         1 CN9      -0.223600
     15 H1         -11.5050    26.2980    23.8430 ha         1 CN9       0.117000
     16 H2          -9.0710    29.3930    20.7030 ha         1 CN9       0.117000
     17 H3          -8.1120    21.9770    19.5890 hc         1 CN9       0.049367
     18 H4          -8.3240    22.4340    21.2860 hc         1 CN9       0.049367
     19 H5          -9.7170    22.4190    20.1910 hc         1 CN9       0.049367
     20 H6          -6.6730    25.8570    17.7030 h4         1 CN9       0.019100
     21 H7          -7.6770    27.8030    18.9530 ha         1 CN9       0.125000
     22 H8         -11.7270    28.7920    24.0900 ha         1 CN9       0.112000
     23 H9         -10.5180    30.3210    22.5310 ha         1 CN9       0.115000
     24 H10        -10.2080    24.3520    22.2210 hn         1 CN9       0.356000
@<TRIPOS>BOND
     1     1     9 ar  
     2     1    10 ar  
     3     1    15 1   
     4     2    11 ar  
     5     2    12 ar  
     6     2    16 1   
     7     3     4 1   
     8     3    17 1   
     9     3    18 1   
    10     3    19 1   
    11     4     8 ar  
    12     4    13 ar  
    13     5     6 ar  
    14     5    13 ar  
    15     5    20 1   
    16     6     7 ar  
    17     6    21 1   
    18     7     8 ar  
    19     7    12 1   
    20     8    14 1   
    21     9    12 ar  
    22     9    14 1   
    23    10    11 ar  
    24    10    22 1   
    25    11    23 1   
    26    14    24 1   
@<TRIPOS>SUBSTRUCTURE
     1 CN9         1 TEMP              0 ****  ****    0 ROOT
