@<TRIPOS>MOLECULE
CNA
   72    76     1     0     0
SMALL
abcg2


@<TRIPOS>ATOM
      1 PA          20.6620     8.0350    18.7360 p5         1 CNA       1.529800
      2 O1A         21.3250     7.3180    19.8760 o          1 CNA      -0.856500
      3 O2A         21.3710     9.1360    18.0300 o          1 CNA      -0.856500
      4 O5B         20.2290     6.9470    17.6190 os         1 CNA      -0.620400
      5 C5B         19.9130     5.6040    18.0090 c3         1 CNA       0.194600
      6 C4B         19.1720     4.9240    16.8670 c5         1 CNA       0.122300
      7 O4B         18.8310     3.5870    17.3030 os         1 CNA      -0.466000
      8 C3B         17.8450     5.5710    16.4690 c5         1 CNA       0.151300
      9 O3B         17.4530     5.1920    15.1530 oh         1 CNA      -0.716000
     10 C2B         16.8830     4.9380    17.4660 c5         1 CNA       0.123300
     11 O2B         15.5350     4.9620    17.0420 oh         1 CNA      -0.687000
     12 C1B         17.4430     3.5130    17.6110 c5         1 CNA       0.276300
     13 N9A         17.2460     2.9490    18.9330 na         1 CNA      -0.287300
     14 C8A         17.3800     3.5790    20.1550 cc         1 CNA       0.441700
     15 N7A         17.1830     2.7740    21.1710 nd         1 CNA      -0.637100
     16 C5A         16.9100     1.5420    20.5990 ca         1 CNA      -0.090600
     17 C6A         16.6120     0.2800    21.1450 ca         1 CNA       0.425900
     18 N6A         16.5150     0.0630    22.4680 nv         1 CNA      -1.082900
     19 N1A         16.3980    -0.7430    20.2960 nb         1 CNA      -0.306000
     20 C2A         16.4740    -0.5180    18.9790 ca         1 CNA       0.155900
     21 N3A         16.7430     0.6260    18.3520 nb         1 CNA      -0.193000
     22 C4A         16.9510     1.6300    19.2100 ca         1 CNA       0.130500
     23 O3          19.2430     8.6650    19.2290 os         1 CNA      -0.759800
     24 PN          17.7660     8.1820    19.7110 p5         1 CNA       1.524800
     25 O1N         16.7810     8.7570    18.7520 o          1 CNA      -0.867000
     26 O2N         17.7620     6.7230    20.0330 o          1 CNA      -0.867000
     27 O5D         17.6480     8.8910    21.1590 os         1 CNA      -0.668400
     28 C5D         17.7820    10.2960    21.4210 c3         1 CNA       0.249600
     29 C4D         18.8200    10.5250    22.5150 c5         1 CNA      -0.082700
     30 C4          18.6020     9.6090    23.7560 c5         1 CNA      -0.067400
     31 C3D         20.2440    10.2180    22.0490 c5         1 CNA       0.149300
     32 O3D         21.1610    10.9950    22.8220 oh         1 CNA      -0.690000
     33 C2D         20.4160     8.7340    22.3690 c5         1 CNA       0.134300
     34 O2D         21.7480     8.2780    22.3320 oh         1 CNA      -0.726000
     35 C1D         19.7760     8.6070    23.7520 c5         1 CNA       0.026300
     36 N1N         19.4000     7.1960    24.0350 na         1 CNA       0.075300
     37 C2N         20.0310     6.5340    25.0160 ca         1 CNA      -0.020000
     38 C3N         19.7770     5.1950    25.2560 ca         1 CNA      -0.196600
     39 C7N         20.5320     4.5540    26.3920 c          1 CNA       0.624700
     40 O7N         20.9960     5.2500    27.2900 o          1 CNA      -0.598100
     41 N7N         20.6470     3.2190    26.3560 nt         1 CNA      -0.593000
     42 C4N         18.8360     4.5450    24.4640 ca         1 CNA       0.000000
     43 C5N         18.1820     5.2510    23.4630 ca         1 CNA      -0.118000
     44 C6N         18.4830     6.5770    23.2590 ca         1 CNA       0.043700
     45 H2          19.3000     5.6140    18.9060 h1         1 CNA       0.051700
     46 H3          20.8330     5.0530    18.2130 h1         1 CNA       0.051700
     47 H4          19.8230     4.8360    15.9950 h1         1 CNA       0.074700
     48 H5          17.8750     6.6570    16.5690 h1         1 CNA       0.106700
     49 H6          18.0640     5.6010    14.5280 ho         1 CNA       0.499000
     50 H7          16.9960     5.4810    18.4040 h1         1 CNA       0.114700
     51 H8          14.9740     5.0190    17.8240 ho         1 CNA       0.502000
     52 H9          16.9500     2.8350    16.9150 h2         1 CNA       0.106700
     53 H10         17.6080     4.6330    20.2300 h5         1 CNA       0.141800
     54 H11         16.3950    -0.8770    22.8080 hn         1 CNA       0.493000
     55 H12         16.7650     0.7860    23.1210 hn         1 CNA       0.493000
     56 H13         16.2940    -1.3800    18.3450 h5         1 CNA       0.039100
     57 H15         18.0640    10.8280    20.5110 h1         1 CNA       0.045200
     58 H16         16.8080    10.6620    21.7500 h1         1 CNA       0.045200
     59 H17         18.7570    11.5780    22.7940 hc         1 CNA       0.070700
     60 H18         18.6140    10.1820    24.6800 hc         1 CNA       0.055700
     61 H19         17.6430     9.0980    23.7040 hc         1 CNA       0.055700
     62 H20         20.3880    10.4140    20.9840 h1         1 CNA       0.107700
     63 H21         22.0230    10.5600    22.7490 ho         1 CNA       0.463000
     64 H22         19.8250     8.1670    21.6570 h1         1 CNA       0.091700
     65 H23         21.8340     7.8940    21.4260 ho         1 CNA       0.554000
     66 H24         20.5080     8.8690    24.5120 h1         1 CNA       0.087700
     67 H25         20.7460     7.0890    25.6030 h4         1 CNA       0.188000
     68 H26         21.1590     2.7580    27.0920 hn         1 CNA       0.325500
     69 H27         20.3630     2.6650    25.5650 hn         1 CNA       0.325500
     70 H28         18.5940     3.5020    24.6240 ha         1 CNA       0.139000
     71 H29         17.4500     4.7670    22.8330 ha         1 CNA       0.199000
     72 H30         18.0240     7.1660    22.4790 h4         1 CNA       0.247000
@<TRIPOS>BOND
     1     1     2 1   
     2     1     3 1   
     3     1     4 1   
     4     1    23 1   
     5     4     5 1   
     6     5     6 1   
     7     5    45 1   
     8     5    46 1   
     9     6     7 1   
    10     6     8 1   
    11     6    47 1   
    12     7    12 1   
    13     8     9 1   
    14     8    10 1   
    15     8    48 1   
    16     9    49 1   
    17    10    11 1   
    18    10    12 1   
    19    10    50 1   
    20    11    51 1   
    21    12    13 1   
    22    12    52 1   
    23    13    14 1   
    24    13    22 1   
    25    14    15 2   
    26    14    53 1   
    27    15    16 1   
    28    16    17 ar  
    29    16    22 ar  
    30    17    18 1   
    31    17    19 ar  
    32    18    54 1   
    33    18    55 1   
    34    19    20 ar  
    35    20    21 ar  
    36    20    56 1   
    37    21    22 ar  
    38    23    24 1   
    39    24    25 1   
    40    24    26 1   
    41    24    27 1   
    42    27    28 1   
    43    28    29 1   
    44    28    57 1   
    45    28    58 1   
    46    29    30 1   
    47    29    31 1   
    48    29    59 1   
    49    30    35 1   
    50    30    60 1   
    51    30    61 1   
    52    31    32 1   
    53    31    33 1   
    54    31    62 1   
    55    32    63 1   
    56    33    34 1   
    57    33    35 1   
    58    33    64 1   
    59    34    65 1   
    60    35    36 1   
    61    35    66 1   
    62    36    37 1   
    63    36    44 2   
    64    37    38 ar  
    65    37    67 1   
    66    38    39 1   
    67    38    42 ar  
    68    39    40 2   
    69    39    41 1   
    70    41    68 1   
    71    41    69 1   
    72    42    43 ar  
    73    42    70 1   
    74    43    44 ar  
    75    43    71 1   
    76    44    72 1   
@<TRIPOS>SUBSTRUCTURE
     1 CNA         1 TEMP              0 ****  ****    0 ROOT
