@<TRIPOS>MOLECULE
CNA
   72    76     1     0     0
SMALL
No Charge or Current Charge


@<TRIPOS>ATOM
      1 PA          20.3020     7.9380    18.8070 p5         1 CNA       1.529800
      2 O1A         21.0700     7.2020    19.8570 o          1 CNA      -0.856500
      3 O2A         21.2070     8.8550    18.0580 o          1 CNA      -0.856500
      4 O5B         19.5380     6.9790    17.7640 os         1 CNA      -0.620400
      5 C5B         19.7580     5.5620    17.8380 c3         1 CNA       0.194600
      6 C4B         19.1570     4.8670    16.5780 c5         1 CNA       0.122300
      7 O4B         18.7750     3.5070    16.9300 os         1 CNA      -0.466000
      8 C3B         17.8310     5.4890    16.0040 c5         1 CNA       0.151300
      9 O3B         17.5580     5.0190    14.6620 oh         1 CNA      -0.716000
     10 C2B         16.8300     4.9320    17.0700 c5         1 CNA       0.123300
     11 O2B         15.4370     5.0640    16.6970 oh         1 CNA      -0.687000
     12 C1B         17.3430     3.4540    17.1530 c5         1 CNA       0.276300
     13 N9A         17.0710     2.6930    18.3740 na         1 CNA      -0.287300
     14 C8A         17.0440     3.1990    19.6810 cc         1 CNA       0.441700
     15 N7A         16.7190     2.2380    20.5720 nd         1 CNA      -0.637100
     16 C5A         16.5440     1.1030    19.7730 ca         1 CNA      -0.090600
     17 C6A         16.1980    -0.2160    20.1430 ca         1 CNA       0.425900
     18 N6A         15.9690    -0.5810    21.4330 nv         1 CNA      -1.082900
     19 N1A         16.0860    -1.1890    19.2250 nb         1 CNA      -0.306000
     20 C2A         16.3170    -0.8240    17.9390 ca         1 CNA       0.155900
     21 N3A         16.6490     0.4120    17.4940 nb         1 CNA      -0.193000
     22 C4A         16.7580     1.3640    18.4420 ca         1 CNA       0.130500
     23 O3          19.1390     8.7700    19.4540 os         1 CNA      -0.759800
     24 PN          17.7740     8.1190    19.8720 p5         1 CNA       1.524800
     25 O1N         16.6560     8.5560    18.9880 o          1 CNA      -0.867000
     26 O2N         17.8120     6.6470    20.0780 o          1 CNA      -0.867000
     27 O5D         17.6520     8.7970    21.3280 os         1 CNA      -0.668400
     28 C5D         17.7220    10.2140    21.5240 c3         1 CNA       0.249600
     29 C4D         18.9010    10.5460    22.5020 c5         1 CNA      -0.082700
     30 C4          18.8360     9.7980    23.8890 c5         1 CNA      -0.067400
     31 C3D         20.3300    10.2020    21.9800 c5         1 CNA       0.149300
     32 O3D         21.3390    11.0240    22.5860 oh         1 CNA      -0.690000
     33 C2D         20.4560     8.7070    22.4180 c5         1 CNA       0.134300
     34 O2D         21.7550     8.1610    22.1700 oh         1 CNA      -0.726000
     35 C1D         20.0440     8.7850    23.9150 c5         1 CNA       0.026300
     36 N1N         19.7450     7.4810    24.5330 na         1 CNA       0.075300
     37 C2N         20.4580     7.0180    25.6490 ca         1 CNA      -0.020000
     38 C3N         20.2150     5.7650    26.2600 ca         1 CNA      -0.196600
     39 C7N         21.0410     5.3600    27.4560 c          1 CNA       0.624700
     40 O7N         21.9110     6.0780    27.9200 o          1 CNA      -0.598100
     41 N7N         20.8050     4.1610    28.0300 nt         1 CNA      -0.593000
     42 C4N         19.2040     4.9370    25.7260 ca         1 CNA       0.000000
     43 C5N         18.4720     5.3760    24.6130 ca         1 CNA      -0.118000
     44 C6N         18.7450     6.6290    24.0370 ca         1 CNA       0.043700
     45 H2          19.2990     5.1420    18.7410 h1         1 CNA       0.051700
     46 H3          20.8320     5.3320    17.8800 h1         1 CNA       0.051700
     47 H4          19.9410     4.8330    15.8100 h1         1 CNA       0.074700
     48 H5          17.8510     6.5890    16.0300 h1         1 CNA       0.106700
     49 H6          18.1620     5.5050    14.0540 ho         1 CNA       0.499000
     50 H7          17.0050     5.4500    18.0220 h1         1 CNA       0.114700
     51 H8          14.8920     4.7210    17.4430 ho         1 CNA       0.502000
     52 H9          16.8870     2.8840    16.3320 h2         1 CNA       0.106700
     53 H10         17.2660     4.2340    19.9140 h5         1 CNA       0.141800
     54 H11         16.0190    -1.5690    21.6670 hn         1 CNA       0.493000
     55 H12         16.2530     0.0780    22.1550 hn         1 CNA       0.493000
     56 H13         16.2260    -1.6050    17.1860 h5         1 CNA       0.039100
     57 H15         17.8740    10.7500    20.5770 h1         1 CNA       0.045200
     58 H16         16.7830    10.5780    21.9620 h1         1 CNA       0.045200
     59 H17         18.8210    11.6270    22.6610 hc         1 CNA       0.070700
     60 H18         18.9180    10.5050    24.7230 hc         1 CNA       0.055700
     61 H19         17.8690     9.2980    24.0210 hc         1 CNA       0.055700
     62 H20         20.3820    10.3050    20.8870 h1         1 CNA       0.107700
     63 H21         22.1570    10.4750    22.5730 ho         1 CNA       0.463000
     64 H22         19.7370     8.0780    21.8920 h1         1 CNA       0.091700
     65 H23         21.6490     7.7100    21.2660 ho         1 CNA       0.554000
     66 H24         20.8670     9.2510    24.4720 h1         1 CNA       0.087700
     67 H25         21.2340     7.6800    26.0360 h4         1 CNA       0.188000
     68 H26         21.3560     3.8870    28.8300 hn         1 CNA       0.325500
     69 H27         20.0930     3.5490    27.6670 hn         1 CNA       0.325500
     70 H28         18.9740     3.9640    26.1540 ha         1 CNA       0.139000
     71 H29         17.6890     4.7450    24.1950 ha         1 CNA       0.199000
     72 H30         18.1710     6.9740    23.1740 h4         1 CNA       0.247000
@<TRIPOS>BOND
     1     1     2 1   
     2     1     3 1   
     3     1     4 1   
     4     1    23 1   
     5     4     5 1   
     6     5     6 1   
     7     5    45 1   
     8     5    46 1   
     9     6     7 1   
    10     6     8 1   
    11     6    47 1   
    12     7    12 1   
    13     8     9 1   
    14     8    10 1   
    15     8    48 1   
    16     9    49 1   
    17    10    11 1   
    18    10    12 1   
    19    10    50 1   
    20    11    51 1   
    21    12    13 1   
    22    12    52 1   
    23    13    14 1   
    24    13    22 1   
    25    14    15 2   
    26    14    53 1   
    27    15    16 1   
    28    16    17 ar  
    29    16    22 ar  
    30    17    18 1   
    31    17    19 ar  
    32    18    54 1   
    33    18    55 1   
    34    19    20 ar  
    35    20    21 ar  
    36    20    56 1   
    37    21    22 ar  
    38    23    24 1   
    39    24    25 1   
    40    24    26 1   
    41    24    27 1   
    42    27    28 1   
    43    28    29 1   
    44    28    57 1   
    45    28    58 1   
    46    29    30 1   
    47    29    31 1   
    48    29    59 1   
    49    30    35 1   
    50    30    60 1   
    51    30    61 1   
    52    31    32 1   
    53    31    33 1   
    54    31    62 1   
    55    32    63 1   
    56    33    34 1   
    57    33    35 1   
    58    33    64 1   
    59    34    65 1   
    60    35    36 1   
    61    35    66 1   
    62    36    37 1   
    63    36    44 2   
    64    37    38 ar  
    65    37    67 1   
    66    38    39 1   
    67    38    42 ar  
    68    39    40 2   
    69    39    41 1   
    70    41    68 1   
    71    41    69 1   
    72    42    43 ar  
    73    42    70 1   
    74    43    44 ar  
    75    43    71 1   
    76    44    72 1   
@<TRIPOS>SUBSTRUCTURE
     1 CNA         1 TEMP              0 ****  ****    0 ROOT
