@<TRIPOS>MOLECULE
CND
   70    74     1     0     0
SMALL
abcg2


@<TRIPOS>ATOM
      1 PA           3.1670   -14.3610   -26.9110 p5         1 CND       1.473800
      2 O1A          4.4930   -13.7930   -26.5210 o          1 CND      -0.838500
      3 O2A          2.4060   -15.2430   -25.9820 o          1 CND      -0.838500
      4 O5B          3.3050   -15.1940   -28.3010 os         1 CND      -0.586400
      5 C5B          3.7880   -14.5470   -29.4770 c3         1 CND       0.222600
      6 C4B          5.0760   -15.2080   -29.9490 c5         1 CND       0.100300
      7 O4B          5.3860   -14.6900   -31.2680 os         1 CND      -0.477000
      8 C3B          6.2950   -14.9080   -29.0770 c5         1 CND       0.150300
      9 O3B          7.2510   -15.9600   -29.0640 oh         1 CND      -0.696000
     10 C2B          6.8180   -13.6200   -29.7220 c5         1 CND       0.095300
     11 O2B          8.1760   -13.3820   -29.4300 oh         1 CND      -0.686000
     12 C1B          6.5410   -13.8640   -31.2140 c5         1 CND       0.257300
     13 N9A          6.3290   -12.6610   -31.9890 na         1 CND      -0.288300
     14 C8A          5.3930   -11.6690   -31.7770 cc         1 CND       0.430700
     15 N7A          5.4340   -10.7220   -32.6800 nd         1 CND      -0.575100
     16 C5A          6.4490   -11.1020   -33.5430 ca         1 CND      -0.096600
     17 C6A          6.9880   -10.5140   -34.7040 ca         1 CND       0.440900
     18 N6A          6.5450    -9.3520   -35.2060 nv         1 CND      -1.077900
     19 N1A          7.9940   -11.1580   -35.3290 nb         1 CND      -0.310000
     20 C2A          8.4360   -12.3150   -34.8250 ca         1 CND       0.165900
     21 N3A          8.0100   -12.9590   -33.7390 nb         1 CND      -0.209000
     22 C4A          7.0120   -12.3080   -33.1330 ca         1 CND       0.132500
     23 O3           2.2700   -13.0740   -27.3580 os         1 CND      -0.736800
     24 PN           0.6890   -12.9330   -27.7340 p5         1 CND       1.474800
     25 O1N         -0.0780   -12.5340   -26.5180 o          1 CND      -0.853000
     26 O2N          0.2490   -14.0880   -28.5680 o          1 CND      -0.853000
     27 O5D          0.7740   -11.5870   -28.6430 os         1 CND      -0.641400
     28 C5D          1.2830   -11.6390   -29.9760 c3         1 CND       0.209600
     29 C4D          0.9050   -10.3700   -30.7060 c5         1 CND       0.157300
     30 O4D         -0.5380   -10.2870   -30.8130 os         1 CND      -0.454000
     31 C3D          1.3540    -9.0760   -30.0380 c5         1 CND       0.130300
     32 O3D          1.6470    -8.1160   -31.0470 oh         1 CND      -0.725000
     33 C2D          0.1120    -8.6460   -29.2430 c5         1 CND       0.101300
     34 O2D          0.0180    -7.2450   -29.0560 oh         1 CND      -0.741000
     35 C1D         -1.0300    -9.1260   -30.1540 c5         1 CND       0.214600
     36 C1N         -2.2960    -9.4630   -29.4160 ca         1 CND      -0.093300
     37 C2N         -3.4540    -8.7080   -29.5660 ca         1 CND       0.008000
     38 C3N         -4.6110    -9.0250   -28.8530 ca         1 CND      -0.187600
     39 C7N         -5.9080    -8.2620   -28.9380 c          1 CND       0.622700
     40 O7N         -6.7170    -8.3320   -28.0180 o          1 CND      -0.586100
     41 N7N         -6.1020    -7.5320   -30.0450 nt         1 CND      -0.590000
     42 C4N         -4.5750   -10.1020   -27.9900 ca         1 CND       0.017700
     43 N5N         -3.4480   -10.8160   -27.8740 na         1 CND      -0.065700
     44 C6N         -2.3240   -10.5400   -28.5470 ca         1 CND       0.030000
     45 H51A         3.9520   -13.4840   -29.2970 h1         1 CND       0.026700
     46 H52A         3.0320   -14.6430   -30.2570 h1         1 CND       0.026700
     47 H4B          4.9260   -16.2850   -30.0340 h1         1 CND       0.096700
     48 H3B          6.0070   -14.7440   -28.0410 h1         1 CND       0.175700
     49 HO3A         7.5340   -16.1640   -29.9650 ho         1 CND       0.485000
     50 H2B          6.1990   -12.7890   -29.3730 h1         1 CND       0.069700
     51 HO2A         8.3810   -12.4650   -29.6550 ho         1 CND       0.499000
     52 H1B          7.3940   -14.3650   -31.6770 h2         1 CND       0.094700
     53 H8A          4.7060   -11.7070   -30.9470 h5         1 CND       0.081800
     54 H61A         5.7920    -8.8540   -34.7630 hn         1 CND       0.503000
     55 H62A         6.9600    -8.9760   -36.0420 hn         1 CND       0.503000
     56 H2A          9.2450   -12.7860   -35.3730 h5         1 CND       0.039100
     57 H51N         0.8640   -12.5010   -30.4980 h1         1 CND       0.054700
     58 H52N         2.3720   -11.7340   -29.9610 h1         1 CND       0.054700
     59 H4D          1.3210   -10.4220   -31.7140 h1         1 CND       0.085700
     60 H3D          2.2200    -9.2290   -29.3880 h1         1 CND       0.094700
     61 HO3N         1.4790    -7.2440   -30.6570 ho         1 CND       0.510000
     62 H2D          0.0920    -9.1720   -28.2900 h1         1 CND       0.098700
     63 HO2N         0.4280    -7.0130   -28.2140 ho         1 CND       0.524000
     64 H1D         -1.2430    -8.3360   -30.8810 h1         1 CND       0.067700
     65 H2N         -3.4330    -7.8600   -30.2380 ha         1 CND       0.147000
     66 H71N        -6.9650    -7.0190   -30.1420 hn         1 CND       0.328500
     67 H72N        -5.4830    -7.5620   -30.8380 hn         1 CND       0.328500
     68 H4N         -5.4210   -10.4090   -27.3950 h4         1 CND       0.193000
     69 H5N         -3.4420   -11.6070   -27.2350 hn         1 CND       0.419000
     70 H6N         -1.4740   -11.1810   -28.3670 h4         1 CND       0.259000
@<TRIPOS>BOND
     1     1     2 1   
     2     1     3 1   
     3     1     4 1   
     4     1    23 1   
     5     4     5 1   
     6     5     6 1   
     7     5    45 1   
     8     5    46 1   
     9     6     7 1   
    10     6     8 1   
    11     6    47 1   
    12     7    12 1   
    13     8     9 1   
    14     8    10 1   
    15     8    48 1   
    16     9    49 1   
    17    10    11 1   
    18    10    12 1   
    19    10    50 1   
    20    11    51 1   
    21    12    13 1   
    22    12    52 1   
    23    13    14 1   
    24    13    22 1   
    25    14    15 2   
    26    14    53 1   
    27    15    16 1   
    28    16    17 ar  
    29    16    22 ar  
    30    17    18 1   
    31    17    19 ar  
    32    18    54 1   
    33    18    55 1   
    34    19    20 ar  
    35    20    21 ar  
    36    20    56 1   
    37    21    22 ar  
    38    23    24 1   
    39    24    25 1   
    40    24    26 1   
    41    24    27 1   
    42    27    28 1   
    43    28    29 1   
    44    28    57 1   
    45    28    58 1   
    46    29    30 1   
    47    29    31 1   
    48    29    59 1   
    49    30    35 1   
    50    31    32 1   
    51    31    33 1   
    52    31    60 1   
    53    32    61 1   
    54    33    34 1   
    55    33    35 1   
    56    33    62 1   
    57    34    63 1   
    58    35    36 1   
    59    35    64 1   
    60    36    37 ar  
    61    36    44 ar  
    62    37    38 ar  
    63    37    65 1   
    64    38    39 1   
    65    38    42 ar  
    66    39    40 2   
    67    39    41 1   
    68    41    66 1   
    69    41    67 1   
    70    42    43 2   
    71    42    68 1   
    72    43    44 1   
    73    43    69 1   
    74    44    70 1   
@<TRIPOS>SUBSTRUCTURE
     1 CND         1 TEMP              0 ****  ****    0 ROOT
