@<TRIPOS>MOLECULE
CND
   70    74     1     0     0
SMALL
No Charge or Current Charge


@<TRIPOS>ATOM
      1 PA           1.9070   -14.3860   -28.4420 p5         1 CND       1.473800
      2 O1A          2.6710   -13.7230   -27.3480 o          1 CND      -0.838500
      3 O2A          1.3390   -15.6810   -27.9650 o          1 CND      -0.838500
      4 O5B          2.8330   -14.5850   -29.7470 os         1 CND      -0.586400
      5 C5B          3.8040   -13.5950   -30.1160 c3         1 CND       0.222600
      6 C4B          5.1090   -13.7650   -29.2690 c5         1 CND       0.100300
      7 O4B          6.2490   -13.9370   -30.1520 os         1 CND      -0.477000
      8 C3B          5.5090   -12.5220   -28.4110 c5         1 CND       0.150300
      9 O3B          6.5390   -12.8140   -27.4490 oh         1 CND      -0.696000
     10 C2B          6.0720   -11.5930   -29.5290 c5         1 CND       0.095300
     11 O2B          6.9570   -10.5970   -28.9770 oh         1 CND      -0.686000
     12 C1B          6.7940   -12.6320   -30.4730 c5         1 CND       0.257300
     13 N9A          6.7260   -12.4190   -31.9210 na         1 CND      -0.288300
     14 C8A          5.6930   -11.7870   -32.6290 cc         1 CND       0.430700
     15 N7A          5.9580   -11.7340   -33.9480 nd         1 CND      -0.575100
     16 C5A          7.2070   -12.3560   -34.0490 ca         1 CND      -0.096600
     17 C6A          7.9990   -12.5990   -35.1900 ca         1 CND       0.440900
     18 N6A          7.6170   -12.2280   -36.4420 nv         1 CND      -1.077900
     19 N1A          9.1830   -13.2240   -35.0950 nb         1 CND      -0.310000
     20 C2A          9.5610   -13.5950   -33.8470 ca         1 CND       0.165900
     21 N3A          8.8670   -13.4020   -32.6990 nb         1 CND      -0.209000
     22 C4A          7.6810   -12.7760   -32.8320 ca         1 CND       0.132500
     23 O3           0.8650   -13.3720   -29.0480 os         1 CND      -0.736800
     24 PN          -0.3900   -14.0520   -29.7060 p5         1 CND       1.474800
     25 O1N         -1.4180   -14.4480   -28.7010 o          1 CND      -0.853000
     26 O2N         -0.0940   -15.1160   -30.7080 o          1 CND      -0.853000
     27 O5D         -0.9100   -12.7340   -30.4710 os         1 CND      -0.641400
     28 C5D         -0.2150   -12.2630   -31.6420 c3         1 CND       0.209600
     29 C4D          0.1010   -10.7400   -31.5190 c5         1 CND       0.157300
     30 O4D         -1.1270    -9.9940   -31.2700 os         1 CND      -0.454000
     31 C3D          1.0910   -10.3540   -30.3650 c5         1 CND       0.130300
     32 O3D          1.8780    -9.1900   -30.6590 oh         1 CND      -0.725000
     33 C2D          0.1050   -10.0230   -29.2120 c5         1 CND       0.101300
     34 O2D          0.7380    -9.1980   -28.2080 oh         1 CND      -0.741000
     35 C1D         -1.0040    -9.2780   -30.0200 c5         1 CND       0.214600
     36 C1N         -2.2940    -9.3680   -29.2060 ca         1 CND      -0.093300
     37 C2N         -2.6200    -8.3490   -28.2920 ca         1 CND       0.008000
     38 C3N         -3.8060    -8.4310   -27.5260 ca         1 CND      -0.187600
     39 C7N         -4.2010    -7.3670   -26.5330 c          1 CND       0.622700
     40 O7N         -5.2310    -7.4350   -25.8830 o          1 CND      -0.586100
     41 N7N         -3.3870    -6.3040   -26.3610 nt         1 CND      -0.590000
     42 C4N         -4.6470    -9.5530   -27.6990 ca         1 CND       0.017700
     43 N5N         -4.3410   -10.5800   -28.5990 na         1 CND      -0.065700
     44 C6N         -3.1630   -10.4710   -29.3450 ca         1 CND       0.030000
     45 H51A         3.3990   -12.5860   -29.9710 h1         1 CND       0.026700
     46 H52A         4.0440   -13.7000   -31.1820 h1         1 CND       0.026700
     47 H4B          5.0090   -14.6620   -28.6440 h1         1 CND       0.096700
     48 H3B          4.6270   -12.0740   -27.9230 h1         1 CND       0.175700
     49 HO3A         7.1480   -12.0390   -27.5260 ho         1 CND       0.485000
     50 H2B          5.2370   -11.1020   -30.0460 h1         1 CND       0.069700
     51 HO2A         7.1690    -9.9510   -29.6930 ho         1 CND       0.499000
     52 H1B          7.8650   -12.6440   -30.2310 h2         1 CND       0.094700
     53 H8A          4.7990   -11.4070   -32.1490 h5         1 CND       0.081800
     54 H61A         6.6430   -11.9590   -36.5560 hn         1 CND       0.503000
     55 H62A         8.0590   -12.6870   -37.2340 hn         1 CND       0.503000
     56 H2A         10.5200   -14.1010   -33.7560 h5         1 CND       0.039100
     57 H51N        -0.8330   -12.4200   -32.5350 h1         1 CND       0.054700
     58 H52N         0.7310   -12.8010   -31.7970 h1         1 CND       0.054700
     59 H4D          0.5120   -10.4190   -32.4860 h1         1 CND       0.085700
     60 H3D          1.7400   -11.1980   -30.0970 h1         1 CND       0.094700
     61 HO3N         1.8390    -8.6810   -29.8090 ho         1 CND       0.510000
     62 H2D         -0.2980   -10.9460   -28.7700 h1         1 CND       0.098700
     63 HO2N         0.8510    -9.7540   -27.3970 ho         1 CND       0.524000
     64 H1D         -0.7240    -8.2370   -30.2350 h1         1 CND       0.067700
     65 H2N         -1.9400    -7.5070   -28.1880 ha         1 CND       0.147000
     66 H71N        -3.6500    -5.5910   -25.6970 hn         1 CND       0.328500
     67 H72N        -2.5290    -6.2220   -26.8810 hn         1 CND       0.328500
     68 H4N         -5.5730    -9.6610   -27.1290 h4         1 CND       0.193000
     69 H5N         -4.9550   -11.3810   -28.7050 hn         1 CND       0.419000
     70 H6N         -2.9410   -11.2820   -30.0430 h4         1 CND       0.259000
@<TRIPOS>BOND
     1     1     2 1   
     2     1     3 1   
     3     1     4 1   
     4     1    23 1   
     5     4     5 1   
     6     5     6 1   
     7     5    45 1   
     8     5    46 1   
     9     6     7 1   
    10     6     8 1   
    11     6    47 1   
    12     7    12 1   
    13     8     9 1   
    14     8    10 1   
    15     8    48 1   
    16     9    49 1   
    17    10    11 1   
    18    10    12 1   
    19    10    50 1   
    20    11    51 1   
    21    12    13 1   
    22    12    52 1   
    23    13    14 1   
    24    13    22 1   
    25    14    15 2   
    26    14    53 1   
    27    15    16 1   
    28    16    17 ar  
    29    16    22 ar  
    30    17    18 1   
    31    17    19 ar  
    32    18    54 1   
    33    18    55 1   
    34    19    20 ar  
    35    20    21 ar  
    36    20    56 1   
    37    21    22 ar  
    38    23    24 1   
    39    24    25 1   
    40    24    26 1   
    41    24    27 1   
    42    27    28 1   
    43    28    29 1   
    44    28    57 1   
    45    28    58 1   
    46    29    30 1   
    47    29    31 1   
    48    29    59 1   
    49    30    35 1   
    50    31    32 1   
    51    31    33 1   
    52    31    60 1   
    53    32    61 1   
    54    33    34 1   
    55    33    35 1   
    56    33    62 1   
    57    34    63 1   
    58    35    36 1   
    59    35    64 1   
    60    36    37 ar  
    61    36    44 ar  
    62    37    38 ar  
    63    37    65 1   
    64    38    39 1   
    65    38    42 ar  
    66    39    40 2   
    67    39    41 1   
    68    41    66 1   
    69    41    67 1   
    70    42    43 2   
    71    42    68 1   
    72    43    44 1   
    73    43    69 1   
    74    44    70 1   
@<TRIPOS>SUBSTRUCTURE
     1 CND         1 TEMP              0 ****  ****    0 ROOT
