@<TRIPOS>MOLECULE
CNE
   79    80     1     0     0
SMALL
bcc


@<TRIPOS>ATOM
      1 C24          2.2510    -0.1740     6.8350 ca         1 CNE      -0.233000
      2 C25          1.9350    -0.3780     5.4910 ca         1 CNE       0.179100
      3 C20          0.6810    -0.8980     5.1380 ca         1 CNE      -0.101300
      4 C21         -0.2180    -1.1990     6.1410 ca         1 CNE      -0.045000
      5 C22          0.0770    -1.0070     7.4960 ca         1 CNE      -0.129800
      6 C23          1.3300    -0.4860     7.8190 ca         1 CNE      -0.058000
      7 C26         -0.9270    -1.3530     8.4880 ce         1 CNE       0.005800
      8 C27         -0.8190    -1.2420     9.8190 cf         1 CNE      -0.256200
      9 C28         -1.9300    -1.6380    10.6920 c          1 CNE       0.645300
     10 O7          -1.6160    -1.4680    11.9730 os         1 CNE      -0.420900
     11 O6          -3.0010    -2.0650    10.3230 o          1 CNE      -0.548000
     12 C29         -2.6010    -1.8180    12.9430 c3         1 CNE       0.130700
     13 O8           2.7610    -0.1040     4.4730 os         1 CNE      -0.317900
     14 C30          4.0730     0.3780     4.7450 c3         1 CNE       0.142400
     15 C31          4.8240     0.4640     3.4390 c3         1 CNE      -0.098100
     16 C19          0.3320    -1.0910     3.6930 c3         1 CNE      -0.104100
     17 C18          0.0260     0.2350     3.0150 c          1 CNE       0.676100
     18 N2           0.4510     0.3320     1.7450 ns         1 CNE      -0.548900
     19 O5          -0.5910     1.1150     3.5940 o          1 CNE      -0.609100
     20 C14          0.1770     1.4570     0.8900 c3         1 CNE       0.030700
     21 C13         -0.3140     0.9440    -0.4600 c          1 CNE       0.655100
     22 C15          1.3950     2.3920     0.7210 c3         1 CNE      -0.067700
     23 C17          1.8390     2.9550     2.0670 c3         1 CNE      -0.090600
     24 C16          2.5530     1.7050     0.0050 c3         1 CNE      -0.090600
     25 O4          -0.1870    -0.2220    -0.8080 o          1 CNE      -0.647100
     26 N1          -0.8730     1.8670    -1.2530 ns         1 CNE      -0.518900
     27 C10         -1.3890     1.5140    -2.5490 c3         1 CNE       0.042700
     28 C9          -0.2850     0.9870    -3.4490 c          1 CNE       0.586100
     29 C11         -2.0130     2.7320    -3.2220 c3         1 CNE      -0.238400
     30 C12         -3.3120     3.2360    -2.5480 c          1 CNE       0.926600
     31 O2          -3.6230     4.4130    -2.8070 o          1 CNE      -0.826300
     32 O3          -3.9430     2.4240    -1.8480 o          1 CNE      -0.826300
     33 C8          -0.7240    -0.0660    -4.4270 c3         1 CNE      -0.112300
     34 O1           0.8480     1.4020    -3.4180 o          1 CNE      -0.523100
     35 S1           0.5290    -0.2880    -5.7080 ss         1 CNE      -0.276200
     36 C7          -0.3730    -1.4700    -6.7630 c3         1 CNE       0.045000
     37 C6           0.4390    -1.7010    -7.9970 ca         1 CNE      -0.093300
     38 C5           1.3540    -2.7450    -8.0690 ca         1 CNE       0.154900
     39 C4           2.1410    -2.9960    -9.1750 ca         1 CNE      -0.176000
     40 C3           2.0230    -2.1570   -10.2710 ca         1 CNE      -0.099000
     41 C2           1.1380    -1.0900   -10.2500 ca         1 CNE      -0.144000
     42 C1           0.3680    -0.8740    -9.1180 ca         1 CNE       0.061400
     43 F1           1.4750    -3.5500    -7.0050 f          1 CNE      -0.133900
     44 CL1         -0.7170     0.4750    -9.1110 cl         1 CNE      -0.085400
     45 H24          3.2090     0.2310     7.1320 ha         1 CNE       0.133000
     46 H21         -1.1860    -1.6020     5.8640 ha         1 CNE       0.140000
     47 H23          1.6060    -0.3160     8.8510 ha         1 CNE       0.127000
     48 H26         -1.8580    -1.7430     8.0860 ha         1 CNE       0.142000
     49 H27          0.0790    -0.8640    10.2930 ha         1 CNE       0.144000
     50 H291        -2.1470    -1.6290    13.9120 h1         1 CNE       0.044033
     51 H292        -3.4980    -1.2070    12.8410 h1         1 CNE       0.044033
     52 H293        -2.8760    -2.8710    12.8740 h1         1 CNE       0.044033
     53 H301         4.5870    -0.3020     5.4320 h1         1 CNE       0.032700
     54 H302         4.0160     1.3590     5.2270 h1         1 CNE       0.032700
     55 H311         5.8280     0.8430     3.6270 hc         1 CNE       0.050033
     56 H312         4.9170    -0.5140     2.9680 hc         1 CNE       0.050033
     57 H313         4.3370     1.1420     2.7380 hc         1 CNE       0.050033
     58 H191         1.1170    -1.6340     3.1630 hc         1 CNE       0.067700
     59 H192        -0.5710    -1.7020     3.6180 hc         1 CNE       0.067700
     60 HN2          0.9150    -0.4610     1.3320 hn         1 CNE       0.327500
     61 H14         -0.6270     2.0340     1.3540 h1         1 CNE       0.098700
     62 H15          1.0620     3.2340     0.1050 hc         1 CNE       0.058700
     63 H171         2.6240     3.6970     1.9200 hc         1 CNE       0.035867
     64 H172         1.0180     3.4350     2.5980 hc         1 CNE       0.035867
     65 H173         2.2410     2.1720     2.7110 hc         1 CNE       0.035867
     66 H161         2.8720     0.8060     0.5370 hc         1 CNE       0.035867
     67 H162         2.2960     1.4220    -1.0160 hc         1 CNE       0.035867
     68 H163         3.4140     2.3720    -0.0480 hc         1 CNE       0.035867
     69 HN1         -0.9970     2.8090    -0.9160 hn         1 CNE       0.338500
     70 H10         -2.1580     0.7430    -2.4470 h1         1 CNE       0.092700
     71 H111        -1.2760     3.5380    -3.2850 hc         1 CNE       0.039700
     72 H112        -2.2660     2.4760    -4.2570 hc         1 CNE       0.039700
     73 H81         -1.6900     0.2020    -4.8630 h1         1 CNE       0.086700
     74 H82         -0.8820    -0.9930    -3.8650 h1         1 CNE       0.086700
     75 H71         -1.3470    -1.0530    -7.0170 h1         1 CNE       0.076200
     76 H72         -0.5390    -2.3970    -6.2180 h1         1 CNE       0.076200
     77 H4           2.8310    -3.8290    -9.1730 ha         1 CNE       0.149000
     78 H3           2.6300    -2.3320   -11.1490 ha         1 CNE       0.133000
     79 H2           1.0490    -0.4330   -11.1030 ha         1 CNE       0.148000
@<TRIPOS>BOND
     1     1     2 ar  
     2     1     6 ar  
     3     1    45 1   
     4     2     3 ar  
     5     2    13 1   
     6     3     4 ar  
     7     3    16 1   
     8     4     5 ar  
     9     4    46 1   
    10     5     6 ar  
    11     5     7 1   
    12     6    47 1   
    13     7     8 2   
    14     7    48 1   
    15     8     9 1   
    16     8    49 1   
    17     9    10 1   
    18     9    11 2   
    19    10    12 1   
    20    12    50 1   
    21    12    51 1   
    22    12    52 1   
    23    13    14 1   
    24    14    15 1   
    25    14    53 1   
    26    14    54 1   
    27    15    55 1   
    28    15    56 1   
    29    15    57 1   
    30    16    17 1   
    31    16    58 1   
    32    16    59 1   
    33    17    18 1   
    34    17    19 2   
    35    18    20 1   
    36    18    60 1   
    37    20    21 1   
    38    20    22 1   
    39    20    61 1   
    40    21    25 2   
    41    21    26 1   
    42    22    23 1   
    43    22    24 1   
    44    22    62 1   
    45    23    63 1   
    46    23    64 1   
    47    23    65 1   
    48    24    66 1   
    49    24    67 1   
    50    24    68 1   
    51    26    27 1   
    52    26    69 1   
    53    27    28 1   
    54    27    29 1   
    55    27    70 1   
    56    28    33 1   
    57    28    34 2   
    58    29    30 1   
    59    29    71 1   
    60    29    72 1   
    61    30    31 1   
    62    30    32 1   
    63    33    35 1   
    64    33    73 1   
    65    33    74 1   
    66    35    36 1   
    67    36    37 1   
    68    36    75 1   
    69    36    76 1   
    70    37    38 ar  
    71    37    42 ar  
    72    38    39 ar  
    73    38    43 1   
    74    39    40 ar  
    75    39    77 1   
    76    40    41 ar  
    77    40    78 1   
    78    41    42 ar  
    79    41    79 1   
    80    42    44 1   
@<TRIPOS>SUBSTRUCTURE
     1 CNE         1 TEMP              0 ****  ****    0 ROOT
