@<TRIPOS>MOLECULE
CNE
   79    80     1     0     0
SMALL
No Charge or Current Charge


@<TRIPOS>ATOM
      1 C24          2.0310     0.0040     7.1980 ca         1 CNE      -0.215000
      2 C25          1.7430    -0.4340     5.8870 ca         1 CNE       0.179100
      3 C20          0.4640    -0.9570     5.5950 ca         1 CNE      -0.101300
      4 C21         -0.5080    -1.0250     6.6140 ca         1 CNE      -0.027000
      5 C22         -0.2230    -0.5880     7.9230 ca         1 CNE      -0.129800
      6 C23          1.0560    -0.0730     8.2060 ca         1 CNE      -0.040000
      7 C26         -1.2830    -0.6790     8.9720 ce         1 CNE      -0.044200
      8 C27         -1.2080    -0.3590    10.2970 cf         1 CNE      -0.306200
      9 C28         -2.3370    -0.4940    11.2470 c          1 CNE       0.596300
     10 O7          -1.9710    -0.1000    12.5050 os         1 CNE      -0.444100
     11 O6          -3.4470    -0.9050    10.9400 o          1 CNE      -0.499000
     12 C29         -2.9590    -0.1680    13.5490 c3         1 CNE       0.153900
     13 O8           2.6820    -0.3640     4.8740 os         1 CNE      -0.341100
     14 C30          4.0340     0.0620     5.1160 c3         1 CNE       0.165600
     15 C31          4.7860     0.0340     3.7780 c3         1 CNE      -0.098100
     16 C19          0.1090    -1.4510     4.1900 c3         1 CNE      -0.104100
     17 C18         -0.2310    -0.2950     3.2420 c          1 CNE       0.609100
     18 N2           0.5100    -0.2460     2.0820 ns         1 CNE      -0.481900
     19 O5          -1.1350     0.4980     3.4720 o          1 CNE      -0.609100
     20 C14          0.3450     0.7610     1.0040 c3         1 CNE       0.030700
     21 C13          0.1100     0.0600    -0.3680 c          1 CNE       0.588100
     22 C15          1.5390     1.7660     0.9750 c3         1 CNE      -0.067700
     23 C17          1.7110     2.5110     2.3210 c3         1 CNE      -0.090600
     24 C16          2.8660     1.1060     0.5230 c3         1 CNE      -0.090600
     25 O4           0.2360    -1.1480    -0.5410 o          1 CNE      -0.647100
     26 N1          -0.2580     0.8950    -1.4010 ns         1 CNE      -0.451900
     27 C10         -0.5670     0.4390    -2.7720 c3         1 CNE       0.042700
     28 C9           0.7360     0.1000    -3.5590 c          1 CNE       0.586100
     29 C11         -1.4660     1.4580    -3.5220 c3         1 CNE      -0.238400
     30 C12         -2.7600     1.7200    -2.7440 c          1 CNE       0.716000
     31 O2          -2.7680     2.6350    -1.9350 o          1 CNE      -0.721000
     32 O3          -3.7040     0.9700    -2.9360 o          1 CNE      -0.721000
     33 C8           0.5760    -0.8490    -4.7610 c3         1 CNE      -0.064400
     34 O1           1.8360     0.5490    -3.2470 o          1 CNE      -0.523100
     35 S1           0.6880     0.0350    -6.3950 ss         1 CNE      -0.372000
     36 C7           0.4040    -1.3830    -7.5470 c3         1 CNE       0.092900
     37 C6           0.3920    -0.9020    -8.9960 ca         1 CNE      -0.093300
     38 C5           1.5690    -0.9570    -9.7730 ca         1 CNE       0.190000
     39 C4           1.5740    -0.5160   -11.1060 ca         1 CNE      -0.158000
     40 C3           0.4000    -0.0080   -11.6840 ca         1 CNE      -0.081000
     41 C2          -0.7780     0.0560   -10.9210 ca         1 CNE      -0.126000
     42 C1          -0.7850    -0.3860    -9.5860 ca         1 CNE       0.153000
     43 F1           2.7170    -1.4380    -9.2430 f          1 CNE      -0.169000
     44 Cl1         -2.2940    -0.2740    -8.6780 cl         1 CNE      -0.177000
     45 H24          3.0040     0.4110     7.4570 ha         1 CNE       0.115000
     46 H21         -1.4940    -1.4230     6.3850 ha         1 CNE       0.122000
     47 H23          1.3080     0.2750     9.2040 ha         1 CNE       0.109000
     48 H26         -2.2390    -1.0590     8.6010 ha         1 CNE       0.192000
     49 H27         -0.2810     0.0200    10.7200 ha         1 CNE       0.194000
     50 H291        -2.5340     0.1750    14.5010 h1         1 CNE       0.044033
     51 H292        -3.8220     0.4700    13.3130 h1         1 CNE       0.044033
     52 H293        -3.3140    -1.1980    13.6860 h1         1 CNE       0.044033
     53 H301         4.5280    -0.6130     5.8260 h1         1 CNE       0.032700
     54 H302         4.0580     1.0820     5.5210 h1         1 CNE       0.032700
     55 H311         5.8490     0.2470     3.9380 hc         1 CNE       0.050033
     56 H312         4.6980    -0.9500     3.3010 hc         1 CNE       0.050033
     57 H313         4.3870     0.7950     3.1000 hc         1 CNE       0.050033
     58 H191         0.9280    -2.0490     3.7730 hc         1 CNE       0.067700
     59 H192        -0.7690    -2.1050     4.2350 hc         1 CNE       0.067700
     60 HN2          1.2050    -0.9730     1.9550 hn         1 CNE       0.327500
     61 H14         -0.5700     1.3360     1.1980 h1         1 CNE       0.098700
     62 H15          1.3010     2.5350     0.2290 hc         1 CNE       0.058700
     63 H171         2.4800     3.2890     2.2370 hc         1 CNE       0.035867
     64 H172         0.7740     2.9960     2.6190 hc         1 CNE       0.035867
     65 H173         2.0110     1.8250     3.1220 hc         1 CNE       0.035867
     66 H161         3.1290     0.2630     1.1720 hc         1 CNE       0.035867
     67 H162         2.7890     0.7310    -0.5040 hc         1 CNE       0.035867
     68 H163         3.6880     1.8310     0.5510 hc         1 CNE       0.035867
     69 HN1         -0.3640     1.8800    -1.1840 hn         1 CNE       0.338500
     70 H10         -1.1300    -0.5020    -2.6890 h1         1 CNE       0.092700
     71 H111        -0.8780     2.3810    -3.6100 hc         1 CNE       0.039700
     72 H112        -1.7020     0.9940    -4.4870 hc         1 CNE       0.039700
     73 H81         -0.3960    -1.3520    -4.6860 h1         1 CNE       0.086700
     74 H82          1.3630    -1.6100    -4.6970 h1         1 CNE       0.086700
     75 H71         -0.5480    -1.8690    -7.2990 h1         1 CNE       0.076200
     76 H72          1.1960    -2.1280    -7.3990 h1         1 CNE       0.076200
     77 H4           2.4910    -0.5670   -11.6890 ha         1 CNE       0.131000
     78 H3           0.4020     0.3350   -12.7170 ha         1 CNE       0.115000
     79 H2          -1.6890     0.4500   -11.3640 ha         1 CNE       0.130000
@<TRIPOS>BOND
     1     1     2 ar  
     2     1     6 ar  
     3     1    45 1   
     4     2     3 ar  
     5     2    13 1   
     6     3     4 ar  
     7     3    16 1   
     8     4     5 ar  
     9     4    46 1   
    10     5     6 ar  
    11     5     7 1   
    12     6    47 1   
    13     7     8 2   
    14     7    48 1   
    15     8     9 1   
    16     8    49 1   
    17     9    10 1   
    18     9    11 2   
    19    10    12 1   
    20    12    50 1   
    21    12    51 1   
    22    12    52 1   
    23    13    14 1   
    24    14    15 1   
    25    14    53 1   
    26    14    54 1   
    27    15    55 1   
    28    15    56 1   
    29    15    57 1   
    30    16    17 1   
    31    16    58 1   
    32    16    59 1   
    33    17    18 1   
    34    17    19 2   
    35    18    20 1   
    36    18    60 1   
    37    20    21 1   
    38    20    22 1   
    39    20    61 1   
    40    21    25 2   
    41    21    26 1   
    42    22    23 1   
    43    22    24 1   
    44    22    62 1   
    45    23    63 1   
    46    23    64 1   
    47    23    65 1   
    48    24    66 1   
    49    24    67 1   
    50    24    68 1   
    51    26    27 1   
    52    26    69 1   
    53    27    28 1   
    54    27    29 1   
    55    27    70 1   
    56    28    33 1   
    57    28    34 2   
    58    29    30 1   
    59    29    71 1   
    60    29    72 1   
    61    30    31 1   
    62    30    32 1   
    63    33    35 1   
    64    33    73 1   
    65    33    74 1   
    66    35    36 1   
    67    36    37 1   
    68    36    75 1   
    69    36    76 1   
    70    37    38 ar  
    71    37    42 ar  
    72    38    39 ar  
    73    38    43 1   
    74    39    40 ar  
    75    39    77 1   
    76    40    41 ar  
    77    40    78 1   
    78    41    42 ar  
    79    41    79 1   
    80    42    44 1   
@<TRIPOS>SUBSTRUCTURE
     1 CNE         1 TEMP              0 ****  ****    0 ROOT
