@<TRIPOS>MOLECULE
CNG
   31    31     1     0     0
SMALL
abcg2


@<TRIPOS>ATOM
      1 C14         -3.5570     0.1480     0.0290 c          1 CNG       0.720000
      2 O32         -3.7790    -0.4900     1.0770 o          1 CNG      -0.737000
      3 C5          -2.0850     0.3960    -0.3490 c3         1 CNG       0.020800
      4 N21         -1.1780    -0.5380     0.2790 n7         1 CNG      -0.861400
      5 C49          0.2410    -0.2360     0.1300 c3         1 CNG       0.181500
      6 C48          1.0690    -1.4530     0.5820 c3         1 CNG      -0.088900
      7 C47          2.1850    -1.8860    -0.3680 c3         1 CNG      -0.065900
      8 C46          3.3830    -0.9560    -0.5680 c3         1 CNG      -0.063900
      9 C45          3.0720     0.3920    -1.2330 c3         1 CNG      -0.066400
     10 C44          2.9400     1.5760    -0.2700 c3         1 CNG      -0.063900
     11 C43          2.1410     1.3400     1.0080 c3         1 CNG      -0.065900
     12 C42          0.6500     1.0580     0.8550 c3         1 CNG      -0.088900
     13 H5          -1.9760     0.3220    -1.4370 h1         1 CNG       0.008200
     14 H5A         -1.8800     1.4540    -0.1080 h1         1 CNG       0.008200
     15 HN21        -1.4190    -0.6170     1.2600 hn         1 CNG       0.426000
     16 H49          0.3960    -0.0990    -0.9460 h1         1 CNG       0.044700
     17 H48          1.4700    -1.2960     1.5890 hc         1 CNG       0.040700
     18 H48A         0.3790    -2.2970     0.6660 hc         1 CNG       0.040700
     19 H47          2.5650    -2.8500    -0.0170 hc         1 CNG       0.026700
     20 H47A         1.7390    -2.0860    -1.3490 hc         1 CNG       0.026700
     21 H46          3.8950    -0.7970     0.3870 hc         1 CNG       0.023950
     22 H46A         4.0980    -1.4980    -1.1920 hc         1 CNG       0.023950
     23 H45          3.8720     0.6340    -1.9380 hc         1 CNG       0.033200
     24 H45A         2.1760     0.2960    -1.8510 hc         1 CNG       0.033200
     25 H44          3.9480     1.8800     0.0290 hc         1 CNG       0.023950
     26 H44A         2.5180     2.4310    -0.8090 hc         1 CNG       0.023950
     27 H43          2.6100     0.5400     1.5880 hc         1 CNG       0.026700
     28 H43A         2.2430     2.2340     1.6300 hc         1 CNG       0.026700
     29 H42          0.1770     1.9160     0.3670 hc         1 CNG       0.040700
     30 H42A         0.2220     1.0060     1.8640 hc         1 CNG       0.040700
     31 OXT         -4.4070     0.6500    -0.7330 o          1 CNG      -0.737000
@<TRIPOS>BOND
     1     1     2 1   
     2     1     3 1   
     3     1    31 1   
     4     3     4 1   
     5     3    13 1   
     6     3    14 1   
     7     4     5 1   
     8     4    15 1   
     9     5     6 1   
    10     5    12 1   
    11     5    16 1   
    12     6     7 1   
    13     6    17 1   
    14     6    18 1   
    15     7     8 1   
    16     7    19 1   
    17     7    20 1   
    18     8     9 1   
    19     8    21 1   
    20     8    22 1   
    21     9    10 1   
    22     9    23 1   
    23     9    24 1   
    24    10    11 1   
    25    10    25 1   
    26    10    26 1   
    27    11    12 1   
    28    11    27 1   
    29    11    28 1   
    30    12    29 1   
    31    12    30 1   
@<TRIPOS>SUBSTRUCTURE
     1 CNG         1 TEMP              0 ****  ****    0 ROOT
