@<TRIPOS>MOLECULE
CNG
   31    31     1     0     0
SMALL
No Charge or Current Charge


@<TRIPOS>ATOM
      1 C14         -3.6920     0.1150    -0.0180 c          1 CNG       0.720000
      2 O32         -4.1090     0.2170     1.1300 o          1 CNG      -0.737000
      3 C5          -2.1710     0.4300    -0.2920 c3         1 CNG       0.020800
      4 N21         -1.1880    -0.4950     0.3710 n7         1 CNG      -0.861400
      5 C49          0.2500    -0.2330     0.1340 c3         1 CNG       0.181500
      6 C48          1.0610    -1.5020     0.5340 c3         1 CNG      -0.088900
      7 C47          2.1840    -1.9150    -0.4570 c3         1 CNG      -0.065900
      8 C46          3.4120    -0.9790    -0.6050 c3         1 CNG      -0.063900
      9 C45          3.1260     0.4100    -1.2340 c3         1 CNG      -0.066400
     10 C44          2.9980     1.5900    -0.2390 c3         1 CNG      -0.063900
     11 C43          2.1820     1.3510     1.0540 c3         1 CNG      -0.065900
     12 C42          0.6680     1.0640     0.8900 c3         1 CNG      -0.088900
     13 H5          -2.0120     0.4170    -1.3790 h1         1 CNG       0.008200
     14 H5A         -1.9990     1.4620     0.0420 h1         1 CNG       0.008200
     15 HN21        -1.3600    -0.4870     1.3840 hn         1 CNG       0.426000
     16 H49          0.3880    -0.0730    -0.9430 h1         1 CNG       0.044700
     17 H48          1.4710    -1.3970     1.5450 hc         1 CNG       0.040700
     18 H48A         0.3790    -2.3600     0.5910 hc         1 CNG       0.040700
     19 H47          2.5570    -2.8980    -0.1420 hc         1 CNG       0.026700
     20 H47A         1.7390    -2.0710    -1.4470 hc         1 CNG       0.026700
     21 H46          3.9250    -0.8690     0.3580 hc         1 CNG       0.023950
     22 H46A         4.1280    -1.4940    -1.2580 hc         1 CNG       0.023950
     23 H45          3.9560     0.6510    -1.9100 hc         1 CNG       0.033200
     24 H45A         2.2460     0.3590    -1.8830 hc         1 CNG       0.033200
     25 H44          4.0110     1.8830     0.0640 hc         1 CNG       0.023950
     26 H44A         2.5810     2.4540    -0.7700 hc         1 CNG       0.023950
     27 H43          2.6510     0.5630     1.6530 hc         1 CNG       0.026700
     28 H43A         2.2730     2.2580     1.6650 hc         1 CNG       0.026700
     29 H42          0.2130     1.9280     0.3920 hc         1 CNG       0.040700
     30 H42A         0.2370     1.0320     1.8990 hc         1 CNG       0.040700
     31 OXT         -4.3970    -0.2350    -0.9570 o          1 CNG      -0.737000
@<TRIPOS>BOND
     1     1     2 1   
     2     1     3 1   
     3     1    31 1   
     4     3     4 1   
     5     3    13 1   
     6     3    14 1   
     7     4     5 1   
     8     4    15 1   
     9     5     6 1   
    10     5    12 1   
    11     5    16 1   
    12     6     7 1   
    13     6    17 1   
    14     6    18 1   
    15     7     8 1   
    16     7    19 1   
    17     7    20 1   
    18     8     9 1   
    19     8    21 1   
    20     8    22 1   
    21     9    10 1   
    22     9    23 1   
    23     9    24 1   
    24    10    11 1   
    25    10    25 1   
    26    10    26 1   
    27    11    12 1   
    28    11    27 1   
    29    11    28 1   
    30    12    29 1   
    31    12    30 1   
@<TRIPOS>SUBSTRUCTURE
     1 CNG         1 TEMP              0 ****  ****    0 ROOT
