@<TRIPOS>MOLECULE
CNH
   13    12     1     0     0
SMALL
No Charge or Current Charge


@<TRIPOS>ATOM
      1 C1          -0.0100    -0.0020     0.3350 c3         1 CNH       0.260100
      2 C2           0.7620    -1.2400     0.8470 c3         1 CNH      -0.104100
      3 C3          -1.4600    -0.0020     0.8710 c3         1 CNH      -0.104100
      4 C4          -0.0130     0.0270    -1.1510 c1         1 CNH       0.261900
      5 O6           0.6400     1.1660     0.8630 oh         1 CNH      -0.641000
      6 N5           0.0130     0.0590    -2.3170 n1         1 CNH      -0.451000
      7 HC21         0.7850    -1.2580     1.9440 hc         1 CNH       0.054033
      8 HC22         0.2850    -2.1670     0.5050 hc         1 CNH       0.054033
      9 HC23         1.7980    -1.2400     0.4870 hc         1 CNH       0.054033
     10 HC31        -2.0070    -0.8860     0.5220 hc         1 CNH       0.054033
     11 HC32        -1.4690    -0.0100     1.9680 hc         1 CNH       0.054033
     12 HC33        -2.0020     0.8910     0.5360 hc         1 CNH       0.054033
     13 HO6          1.5420     1.1920     0.4750 ho         1 CNH       0.453000
@<TRIPOS>BOND
     1     1     2 1   
     2     1     3 1   
     3     1     4 1   
     4     1     5 1   
     5     2     7 1   
     6     2     8 1   
     7     2     9 1   
     8     3    10 1   
     9     3    11 1   
    10     3    12 1   
    11     4     6 3   
    12     5    13 1   
@<TRIPOS>SUBSTRUCTURE
     1 CNH         1 TEMP              0 ****  ****    0 ROOT
