@<TRIPOS>MOLECULE
CNH
   13    12     1     0     0
SMALL
bcc


@<TRIPOS>ATOM
      1 C1          -0.0010     0.0070     0.3530 c3         1 CNH       0.236900
      2 C2           0.7600    -1.2280     0.8260 c3         1 CNH      -0.104100
      3 C3          -1.4370     0.0070     0.8620 c3         1 CNH      -0.104100
      4 C4          -0.0330    -0.0020    -1.1330 c1         1 CNH       0.172700
      5 O6           0.6020     1.2010     0.7810 oh         1 CNH      -0.578800
      6 N5          -0.0500    -0.0050    -2.2830 n1         1 CNH      -0.361800
      7 HC21         0.7590    -1.2540     1.9160 hc         1 CNH       0.054033
      8 HC22         0.2940    -2.1420     0.4600 hc         1 CNH       0.054033
      9 HC23         1.7940    -1.2110     0.4790 hc         1 CNH       0.054033
     10 HC31        -1.9690    -0.8760     0.5110 hc         1 CNH       0.054033
     11 HC32        -1.4330    -0.0040     1.9520 hc         1 CNH       0.054033
     12 HC33        -1.9760     0.8920     0.5230 hc         1 CNH       0.054033
     13 HO6          1.5540     1.1450     0.6390 ho         1 CNH       0.414000
@<TRIPOS>BOND
     1     1     2 1   
     2     1     3 1   
     3     1     4 1   
     4     1     5 1   
     5     2     7 1   
     6     2     8 1   
     7     2     9 1   
     8     3    10 1   
     9     3    11 1   
    10     3    12 1   
    11     4     6 3   
    12     5    13 1   
@<TRIPOS>SUBSTRUCTURE
     1 CNH         1 TEMP              0 ****  ****    0 ROOT
