@<TRIPOS>MOLECULE
CNK
   45    48     1     0     0
SMALL
bcc


@<TRIPOS>ATOM
      1 O5          -2.6690    -0.8940    -0.4530 os         1 CNK      -0.365600
      2 C5          -4.0040    -1.1790    -0.0790 c6         1 CNK       0.145100
      3 C4          -4.8620     0.0810    -0.2210 c6         1 CNK       0.120100
      4 C3          -4.2540     1.2120     0.6010 c6         1 CNK       0.078100
      5 C2          -2.7900     1.4130     0.2240 c6         1 CNK       0.089100
      6 C1          -2.0600     0.0760     0.3570 c6         1 CNK       0.131800
      7 C17         -0.6390     0.2070    -0.0750 cc         1 CNK       0.390800
      8 O2          -2.1440     2.3310     1.0710 oh         1 CNK      -0.600800
      9 O3          -5.0210     2.3720     0.3640 oh         1 CNK      -0.602800
     10 O4          -6.1630    -0.2270     0.2130 oh         1 CNK      -0.595800
     11 C6          -4.4990    -2.3020    -0.9650 c3         1 CNK       0.149400
     12 O6          -3.7240    -3.4510    -0.7170 oh         1 CNK      -0.588800
     13 N5           0.4230     0.1340     0.7520 na         1 CNK      -0.431700
     14 C16          1.5150     0.3220    -0.0290 cc         1 CNK       0.444000
     15 N3           1.1230     0.4990    -1.2650 nd         1 CNK      -0.356000
     16 N2          -0.2270     0.4270    -1.2920 nd         1 CNK      -0.339000
     17 C18          2.8800     0.3740     0.4970 ca         1 CNK      -0.112500
     18 C11          3.0790     0.9610     1.7260 ca         1 CNK      -0.119000
     19 C10          4.3620     1.0670     2.2880 ca         1 CNK      -0.134000
     20 C9           5.4460     0.5890     1.6090 ca         1 CNK      -0.099000
     21 C8           5.2890    -0.0290     0.3470 ca         1 CNK      -0.041000
     22 C7           3.9940    -0.1480    -0.2290 ca         1 CNK      -0.004000
     23 C15          6.4120    -0.5360    -0.3490 ca         1 CNK      -0.124000
     24 C14          6.2660    -1.1520    -1.5600 ca         1 CNK      -0.118000
     25 C13          4.9830    -1.2920    -2.1230 ca         1 CNK      -0.125000
     26 C12          3.8770    -0.8040    -1.4780 ca         1 CNK      -0.102000
     27 H1          -4.0340    -1.5080     0.9730 h1         1 CNK       0.058700
     28 H2          -4.8590     0.3820    -1.2810 h1         1 CNK       0.060700
     29 H3          -4.3010     0.9250     1.6630 h1         1 CNK       0.051700
     30 H4          -2.7320     1.7290    -0.8270 h1         1 CNK       0.080700
     31 H5          -2.0810    -0.2290     1.4150 h1         1 CNK       0.047700
     32 H6          -2.2880     3.2200     0.7350 ho         1 CNK       0.419000
     33 H7          -4.9360     2.9630     1.1180 ho         1 CNK       0.415000
     34 H8          -6.6930     0.5760     0.1610 ho         1 CNK       0.425000
     35 H9          -5.5580    -2.4720    -0.7440 h1         1 CNK       0.039200
     36 H10         -4.4340    -1.9830    -2.0140 h1         1 CNK       0.039200
     37 H11         -4.0630    -4.1610    -1.2680 ho         1 CNK       0.407000
     38 H12          0.4070    -0.0670     1.7410 hn         1 CNK       0.314700
     39 H13          2.2390     1.3760     2.2700 ha         1 CNK       0.127000
     40 H14          4.4820     1.5430     3.2520 ha         1 CNK       0.134000
     41 H15          6.4410     0.6770     2.0290 ha         1 CNK       0.134000
     42 H16          7.3920    -0.4280     0.0990 ha         1 CNK       0.130000
     43 H17          7.1310    -1.5360    -2.0850 ha         1 CNK       0.132000
     44 H18          4.8670    -1.7940    -3.0750 ha         1 CNK       0.135000
     45 H19          2.9060    -0.9160    -1.9350 ha         1 CNK       0.160000
@<TRIPOS>BOND
     1     1     2 1   
     2     1     6 1   
     3     2     3 1   
     4     2    11 1   
     5     2    27 1   
     6     3     4 1   
     7     3    10 1   
     8     3    28 1   
     9     4     5 1   
    10     4     9 1   
    11     4    29 1   
    12     5     6 1   
    13     5     8 1   
    14     5    30 1   
    15     6     7 1   
    16     6    31 1   
    17     7    13 1   
    18     7    16 2   
    19     8    32 1   
    20     9    33 1   
    21    10    34 1   
    22    11    12 1   
    23    11    35 1   
    24    11    36 1   
    25    12    37 1   
    26    13    14 1   
    27    13    38 1   
    28    14    15 2   
    29    14    17 1   
    30    15    16 1   
    31    17    18 ar  
    32    17    22 ar  
    33    18    19 ar  
    34    18    39 1   
    35    19    20 ar  
    36    19    40 1   
    37    20    21 ar  
    38    20    41 1   
    39    21    22 ar  
    40    21    23 ar  
    41    22    26 ar  
    42    23    24 ar  
    43    23    42 1   
    44    24    25 ar  
    45    24    43 1   
    46    25    26 ar  
    47    25    44 1   
    48    26    45 1   
@<TRIPOS>SUBSTRUCTURE
     1 CNK         1 TEMP              0 ****  ****    0 ROOT
