@<TRIPOS>MOLECULE
CNK
   45    48     1     0     0
SMALL
No Charge or Current Charge


@<TRIPOS>ATOM
      1 O5          -2.5340    -0.4800     0.8070 os         1 CNK      -0.412000
      2 C5          -3.9570    -0.7230     0.9640 c6         1 CNK       0.168300
      3 C4          -4.6910    -0.3710    -0.3650 c6         1 CNK       0.143300
      4 C3          -4.3810     1.1050    -0.7410 c6         1 CNK       0.101300
      5 C2          -2.8450     1.3450    -0.8250 c6         1 CNK       0.112300
      6 C1          -2.1740     0.9000     0.5200 c6         1 CNK       0.155000
      7 C17         -0.6620     1.0580     0.4480 cc         1 CNK       0.390800
      8 O2          -2.6060     2.7380    -1.1380 oh         1 CNK      -0.723000
      9 O3          -5.0090     1.4580    -1.9850 oh         1 CNK      -0.665000
     10 O4          -6.1160    -0.5470    -0.2700 oh         1 CNK      -0.718000
     11 C6          -4.1570    -2.2170     1.3810 c3         1 CNK       0.172600
     12 O6          -3.4220    -2.5830     2.5680 oh         1 CNK      -0.711000
     13 N5           0.2330     0.0220     0.5160 na         1 CNK      -0.482000
     14 C16          1.4830     0.5560     0.3870 cc         1 CNK       0.444000
     15 N3           1.3640     1.8700     0.2880 nd         1 CNK      -0.356000
     16 N2           0.0250     2.1820     0.3090 nd         1 CNK      -0.339000
     17 C18          2.7250    -0.2290     0.4810 ca         1 CNK      -0.112500
     18 C11          2.7520    -1.2950     1.4090 ca         1 CNK      -0.101000
     19 C10          3.9170    -2.0450     1.6220 ca         1 CNK      -0.116000
     20 C9           5.0850    -1.7380     0.9160 ca         1 CNK      -0.081000
     21 C8           5.0900    -0.6870    -0.0150 ca         1 CNK      -0.041000
     22 C7           3.9140     0.0760    -0.2480 ca         1 CNK      -0.004000
     23 C15          6.2780    -0.4070    -0.7190 ca         1 CNK      -0.106000
     24 C14          6.3120     0.6200    -1.6720 ca         1 CNK      -0.100000
     25 C13          5.1540     1.3650    -1.9320 ca         1 CNK      -0.107000
     26 C12          3.9650     1.0940    -1.2340 ca         1 CNK      -0.084000
     27 H1          -4.3380    -0.0850     1.7750 h1         1 CNK       0.058700
     28 H2          -4.2890    -1.0200    -1.1590 h1         1 CNK       0.060700
     29 H3          -4.7740     1.7480     0.0620 h1         1 CNK       0.051700
     30 H4          -2.4400     0.7060    -1.6260 h1         1 CNK       0.080700
     31 H5          -2.5580     1.5280     1.3360 h1         1 CNK       0.047700
     32 H6          -1.6330     2.8990    -1.0770 ho         1 CNK       0.518000
     33 H7          -4.5340     2.2700    -2.2800 ho         1 CNK       0.454000
     34 H8          -6.4820     0.0140    -0.9970 ho         1 CNK       0.524000
     35 H9          -5.2310    -2.3880     1.5390 h1         1 CNK       0.039200
     36 H10         -3.8480    -2.8490     0.5370 h1         1 CNK       0.039200
     37 H11         -3.5790    -3.5440     2.7190 ho         1 CNK       0.506000
     38 H12          0.0020    -0.9520     0.6330 hn         1 CNK       0.365000
     39 H13          1.8670    -1.5360     1.9940 ha         1 CNK       0.109000
     40 H14          3.9160    -2.8580     2.3450 ha         1 CNK       0.116000
     41 H15          5.9860    -2.3220     1.0920 ha         1 CNK       0.116000
     42 H16          7.1760    -0.9910    -0.5310 ha         1 CNK       0.112000
     43 H17          7.2310     0.8310    -2.2150 ha         1 CNK       0.114000
     44 H18          5.1740     2.1510    -2.6840 ha         1 CNK       0.117000
     45 H19          3.0900     1.6790    -1.4930 ha         1 CNK       0.142000
@<TRIPOS>BOND
     1     1     2 1   
     2     1     6 1   
     3     2     3 1   
     4     2    11 1   
     5     2    27 1   
     6     3     4 1   
     7     3    10 1   
     8     3    28 1   
     9     4     5 1   
    10     4     9 1   
    11     4    29 1   
    12     5     6 1   
    13     5     8 1   
    14     5    30 1   
    15     6     7 1   
    16     6    31 1   
    17     7    13 1   
    18     7    16 2   
    19     8    32 1   
    20     9    33 1   
    21    10    34 1   
    22    11    12 1   
    23    11    35 1   
    24    11    36 1   
    25    12    37 1   
    26    13    14 1   
    27    13    38 1   
    28    14    15 2   
    29    14    17 1   
    30    15    16 1   
    31    17    18 ar  
    32    17    22 ar  
    33    18    19 ar  
    34    18    39 1   
    35    19    20 ar  
    36    19    40 1   
    37    20    21 ar  
    38    20    41 1   
    39    21    22 ar  
    40    21    23 ar  
    41    22    26 ar  
    42    23    24 ar  
    43    23    42 1   
    44    24    25 ar  
    45    24    43 1   
    46    25    26 ar  
    47    25    44 1   
    48    26    45 1   
@<TRIPOS>SUBSTRUCTURE
     1 CNK         1 TEMP              0 ****  ****    0 ROOT
