@<TRIPOS>MOLECULE
CNL
   29    30     1     0     0
SMALL
abcg2


@<TRIPOS>ATOM
      1 C1           1.2080    -0.3410    -0.0150 c6         1 CNL       0.186000
      2 C2           1.2290     0.5690    -1.2460 c6         1 CNL      -0.098400
      3 C3           0.0030     1.5030    -1.2130 c6         1 CNL      -0.069400
      4 C4          -0.8400     1.1530     0.0140 c6         1 CNL      -0.085700
      5 C5           0.0080     1.4640     1.2480 c6         1 CNL      -0.069400
      6 C6           1.2280     0.5210     1.2510 c6         1 CNL      -0.098400
      7 C7           2.3540    -1.3340    -0.0330 c3         1 CNL      -0.078100
      8 C8          -1.2050    -0.3430    -0.0100 c6         1 CNL       0.191000
      9 C9          -1.9990    -0.7540     1.2300 c3         1 CNL      -0.095600
     10 C10         -2.0150    -0.7110    -1.2520 c3         1 CNL      -0.095600
     11 O            0.0070    -1.1100    -0.0310 os         1 CNL      -0.465000
     12 H21          2.1610     1.1390    -1.2590 hc         1 CNL       0.047200
     13 H22          1.2290    -0.0500    -2.1480 hc         1 CNL       0.047200
     14 H31         -0.5790     1.4270    -2.1320 hc         1 CNL       0.042200
     15 H32          0.3120     2.5480    -1.1410 hc         1 CNL       0.042200
     16 H4          -1.7580     1.7460     0.0250 hc         1 CNL       0.057700
     17 H51         -0.5710     1.3670     2.1660 hc         1 CNL       0.042200
     18 H52          0.3240     2.5080     1.2020 hc         1 CNL       0.042200
     19 H61          1.2200    -0.1320     2.1280 hc         1 CNL       0.047200
     20 H62          2.1640     1.0840     1.2900 hc         1 CNL       0.047200
     21 H71          2.3230    -1.9860     0.8420 hc         1 CNL       0.042700
     22 H72          2.3240    -1.9560    -0.9290 hc         1 CNL       0.042700
     23 H73          3.3100    -0.8080    -0.0240 hc         1 CNL       0.042700
     24 H91         -2.9270    -0.1840     1.3020 hc         1 CNL       0.039033
     25 H92         -2.2640    -1.8110     1.1790 hc         1 CNL       0.039033
     26 H93         -1.4360    -0.5980     2.1500 hc         1 CNL       0.039033
     27 H101        -1.4660    -0.5190    -2.1740 hc         1 CNL       0.039033
     28 H102        -2.2760    -1.7710    -1.2360 hc         1 CNL       0.039033
     29 H103        -2.9450    -0.1420    -1.2900 hc         1 CNL       0.039033
@<TRIPOS>BOND
     1     1     2 1   
     2     1     6 1   
     3     1     7 1   
     4     1    11 1   
     5     2     3 1   
     6     2    12 1   
     7     2    13 1   
     8     3     4 1   
     9     3    14 1   
    10     3    15 1   
    11     4     5 1   
    12     4     8 1   
    13     4    16 1   
    14     5     6 1   
    15     5    17 1   
    16     5    18 1   
    17     6    19 1   
    18     6    20 1   
    19     7    21 1   
    20     7    22 1   
    21     7    23 1   
    22     8     9 1   
    23     8    10 1   
    24     8    11 1   
    25     9    24 1   
    26     9    25 1   
    27     9    26 1   
    28    10    27 1   
    29    10    28 1   
    30    10    29 1   
@<TRIPOS>SUBSTRUCTURE
     1 CNL         1 TEMP              0 ****  ****    0 ROOT
