@<TRIPOS>MOLECULE
CNL
   29    30     1     0     0
SMALL
No Charge or Current Charge


@<TRIPOS>ATOM
      1 C1           1.2310    -0.3450    -0.0150 c6         1 CNL       0.186000
      2 C2           1.2410     0.5840    -1.2690 c6         1 CNL      -0.098400
      3 C3           0.0080     1.5400    -1.2320 c6         1 CNL      -0.069400
      4 C4          -0.8690     1.2030     0.0150 c6         1 CNL      -0.085700
      5 C5           0.0140     1.5020     1.2680 c6         1 CNL      -0.069400
      6 C6           1.2390     0.5340     1.2760 c6         1 CNL      -0.098400
      7 C7           2.4040    -1.3580    -0.0330 c3         1 CNL      -0.078100
      8 C8          -1.2270    -0.3340    -0.0100 c6         1 CNL       0.191000
      9 C9          -2.0290    -0.7910     1.2460 c3         1 CNL      -0.095600
     10 C10         -2.0510    -0.7450    -1.2700 c3         1 CNL      -0.095600
     11 O            0.0020    -1.1210    -0.0340 os         1 CNL      -0.465000
     12 H21          2.1710     1.1690    -1.3040 hc         1 CNL       0.047200
     13 H22          1.2180    -0.0220    -2.1850 hc         1 CNL       0.047200
     14 H31         -0.5730     1.4550    -2.1590 hc         1 CNL       0.042200
     15 H32          0.3450     2.5840    -1.1850 hc         1 CNL       0.042200
     16 H4          -1.7780     1.8200     0.0260 hc         1 CNL       0.057700
     17 H51         -0.5640     1.4030     2.1960 hc         1 CNL       0.042200
     18 H52          0.3610     2.5450     1.2440 hc         1 CNL       0.042200
     19 H61          1.2030    -0.1080     2.1670 hc         1 CNL       0.047200
     20 H62          2.1730     1.1090     1.3420 hc         1 CNL       0.047200
     21 H71          2.3710    -2.0200     0.8400 hc         1 CNL       0.042700
     22 H72          2.3720    -1.9860    -0.9320 hc         1 CNL       0.042700
     23 H73          3.3720    -0.8420    -0.0230 hc         1 CNL       0.042700
     24 H91         -2.9330    -0.1850     1.3790 hc         1 CNL       0.039033
     25 H92         -2.3440    -1.8380     1.1620 hc         1 CNL       0.039033
     26 H93         -1.4370    -0.7150     2.1650 hc         1 CNL       0.039033
     27 H101        -1.4680    -0.6480    -2.1920 hc         1 CNL       0.039033
     28 H102        -2.3790    -1.7890    -1.2140 hc         1 CNL       0.039033
     29 H103        -2.9490    -0.1240    -1.3750 hc         1 CNL       0.039033
@<TRIPOS>BOND
     1     1     2 1   
     2     1     6 1   
     3     1     7 1   
     4     1    11 1   
     5     2     3 1   
     6     2    12 1   
     7     2    13 1   
     8     3     4 1   
     9     3    14 1   
    10     3    15 1   
    11     4     5 1   
    12     4     8 1   
    13     4    16 1   
    14     5     6 1   
    15     5    17 1   
    16     5    18 1   
    17     6    19 1   
    18     6    20 1   
    19     7    21 1   
    20     7    22 1   
    21     7    23 1   
    22     8     9 1   
    23     8    10 1   
    24     8    11 1   
    25     9    24 1   
    26     9    25 1   
    27     9    26 1   
    28    10    27 1   
    29    10    28 1   
    30    10    29 1   
@<TRIPOS>SUBSTRUCTURE
     1 CNL         1 TEMP              0 ****  ****    0 ROOT
