@<TRIPOS>MOLECULE
CNM
    9     8     1     0     0
SMALL
No Charge or Current Charge


@<TRIPOS>ATOM
      1 C1           0.1460     0.0320    -0.0550 c          1 CNM       0.604100
      2 O1           1.3220     0.0690    -0.3730 o          1 CNM      -0.605100
      3 N1          -0.8210    -0.0180    -0.9940 nt         1 CNM      -0.616000
      4 C2          -0.3300     0.0400     1.3910 c3         1 CNM      -0.183100
      5 HN1         -0.5620    -0.0260    -1.9690 hn         1 CNM       0.311500
      6 HN2         -1.7920    -0.0480    -0.7180 hn         1 CNM       0.311500
      7 H21          0.4970     0.0820     2.1080 hc         1 CNM       0.059367
      8 H22         -1.0310     0.8710     1.5320 hc         1 CNM       0.059367
      9 H23         -0.9700    -0.8340     1.5610 hc         1 CNM       0.059367
@<TRIPOS>BOND
     1     1     2 2   
     2     1     3 1   
     3     1     4 1   
     4     3     5 1   
     5     3     6 1   
     6     4     7 1   
     7     4     8 1   
     8     4     9 1   
@<TRIPOS>SUBSTRUCTURE
     1 CNM         1 TEMP              0 ****  ****    0 ROOT
