@<TRIPOS>MOLECULE
CNN
    5     4     1     0     0
SMALL
bcc


@<TRIPOS>ATOM
      1 N1          -0.0270    -0.2050     1.1580 n8         1 CNN      -0.758400
      2 C           -0.0340    -0.0050    -0.1490 c1         1 CNN       0.321600
      3 N2          -0.0160     0.1200    -1.3000 n1         1 CNN      -0.406800
      4 HN11        -0.8700     0.0590     1.6470 hn         1 CNN       0.421800
      5 HN12         0.8180     0.0750     1.6350 hn         1 CNN       0.421800
@<TRIPOS>BOND
     1     1     2 1   
     2     1     4 1   
     3     1     5 1   
     4     2     3 3   
@<TRIPOS>SUBSTRUCTURE
     1 CNN         1 TEMP              0 ****  ****    0 ROOT
