@<TRIPOS>MOLECULE
CNN
    5     4     1     0     0
SMALL
No Charge or Current Charge


@<TRIPOS>ATOM
      1 N1          -0.0240    -0.3050     1.1540 n8         1 CNN      -0.868800
      2 C           -0.0250    -0.0340    -0.1500 c1         1 CNN       0.410800
      3 N2          -0.0250     0.1430    -1.2950 n1         1 CNN      -0.496000
      4 HN11        -0.8230     0.1140     1.6400 hn         1 CNN       0.477000
      5 HN12         0.7680     0.1260     1.6420 hn         1 CNN       0.477000
@<TRIPOS>BOND
     1     1     2 1   
     2     1     4 1   
     3     1     5 1   
     4     2     3 3   
@<TRIPOS>SUBSTRUCTURE
     1 CNN         1 TEMP              0 ****  ****    0 ROOT
