@<TRIPOS>MOLECULE
CNO
   70    72     1     0     0
SMALL
No Charge or Current Charge


@<TRIPOS>ATOM
      1 C1          15.5450    21.6450    43.7340 c          1 CNO       0.701000
      2 O2          14.7780    20.6920    43.8110 o          1 CNO      -0.709500
      3 O3          15.2310    22.6930    43.1820 o          1 CNO      -0.709500
      4 C4          17.0240    21.4920    44.2730 c3         1 CNO       0.041500
      5 C5          18.0840    22.2520    43.4190 c3         1 CNO      -0.077600
      6 C6          17.0560    22.0400    45.7220 c3         1 CNO      -0.077600
      7 O7          17.4620    20.1060    44.4130 os         1 CNO      -0.357100
      8 C8          17.6160    19.1960    43.3780 ca         1 CNO       0.208600
      9 C9          18.2550    17.9840    43.6890 ca         1 CNO      -0.174750
     10 C10         18.4600    17.0050    42.7020 ca         1 CNO      -0.065750
     11 C11         17.1680    19.4140    42.0560 ca         1 CNO      -0.174750
     12 C12         17.3720    18.4350    41.0680 ca         1 CNO      -0.065750
     13 C13         18.0220    17.2280    41.3840 ca         1 CNO      -0.162800
     14 C14         18.2380    16.1630    40.3100 c3         1 CNO      -0.086600
     15 C15         17.0720    15.1610    40.2760 c          1 CNO       0.606600
     16 O16         16.0100    15.4300    39.7230 o          1 CNO      -0.581600
     17 N17         17.3340    13.9660    40.9340 ns         1 CNO      -0.149500
     18 C18         16.5610    12.7900    41.1340 ca         1 CNO       0.015000
     19 C19         15.2980    12.5710    40.5420 ca         1 CNO      -0.194000
     20 C20         17.1030    11.7930    41.9640 ca         1 CNO      -0.186500
     21 C21         16.3990    10.6040    42.2050 ca         1 CNO      -0.063000
     22 C22         15.1420    10.3980    41.6150 ca         1 CNO      -0.186500
     23 C23         14.5790    11.3830    40.7770 ca         1 CNO       0.015000
     24 N24         13.3170    11.2460    40.1390 ns         1 CNO      -0.149500
     25 C25         12.3340    10.2640    40.2010 c          1 CNO       0.606600
     26 O26         12.4010     9.2580    40.8990 o          1 CNO      -0.581600
     27 C27         11.1200    10.5370    39.2960 c3         1 CNO      -0.086600
     28 C28         11.1920     9.7130    38.0110 ca         1 CNO      -0.162800
     29 C29         11.8600    10.2190    36.8800 ca         1 CNO      -0.065750
     30 C30         11.9310     9.4610    35.6980 ca         1 CNO      -0.174750
     31 C31         10.6020     8.4380    37.9510 ca         1 CNO      -0.065750
     32 C32         10.6740     7.6820    36.7690 ca         1 CNO      -0.174750
     33 C33         11.3300     8.1840    35.6330 ca         1 CNO       0.208600
     34 O34         11.3480     7.3710    34.5090 os         1 CNO      -0.357100
     35 C35         11.7840     7.7700    33.1740 c3         1 CNO       0.041500
     36 C36         10.8250     8.8890    32.6650 c3         1 CNO      -0.077600
     37 C37         11.5710     6.4960    32.3180 c3         1 CNO      -0.077600
     38 C38         13.3150     8.1570    33.0890 c          1 CNO       0.701000
     39 O39         14.0780     7.7800    33.9700 o          1 CNO      -0.709500
     40 O40         13.6810     8.8900    32.1780 o          1 CNO      -0.709500
     41 HC51        19.0990    22.0220    43.7640 hc         1 CNO       0.028533
     42 HC52        17.9420    23.3360    43.5020 hc         1 CNO       0.028533
     43 H53C        18.0200    21.9970    42.3570 hc         1 CNO       0.028533
     44 HC61        16.3500    21.4940    46.3580 hc         1 CNO       0.028533
     45 HC62        16.7780    23.1010    45.7420 hc         1 CNO       0.028533
     46 HC63        18.0580    21.9430    46.1580 hc         1 CNO       0.028533
     47 HC9         18.5980    17.8060    44.7040 ha         1 CNO       0.131500
     48 H10C        18.9600    16.0750    42.9650 ha         1 CNO       0.095750
     49 H11C        16.6530    20.3240    41.7760 ha         1 CNO       0.131500
     50 H12C        17.0180    18.6160    40.0550 ha         1 CNO       0.095750
     51 H141        19.1740    15.6320    40.5250 hc         1 CNO       0.053700
     52 H142        18.3170    16.6440    39.3280 hc         1 CNO       0.053700
     53 H17N        18.2540    13.9220    41.3540 hn         1 CNO       0.149000
     54 H19C        14.8580    13.3160    39.8870 ha         1 CNO       0.150000
     55 H20C        18.0760    11.9390    42.4280 ha         1 CNO       0.125500
     56 H21C        16.8280     9.8390    42.8480 ha         1 CNO       0.104000
     57 H22C        14.6280     9.4640    41.8180 ha         1 CNO       0.125500
     58 H24N        13.0930    12.0100    39.5150 hn         1 CNO       0.149000
     59 H271        11.0890    11.6010    39.0320 hc         1 CNO       0.053700
     60 H272        10.2080    10.2780    39.8470 hc         1 CNO       0.053700
     61 H29C        12.3290    11.2000    36.9140 ha         1 CNO       0.095750
     62 H30C        12.4650     9.8790    34.8530 ha         1 CNO       0.131500
     63 H31C        10.0880     8.0300    38.8190 ha         1 CNO       0.095750
     64 H32C        10.2140     6.6980    36.7300 ha         1 CNO       0.131500
     65 H361        11.0190     9.8520    33.1480 hc         1 CNO       0.028533
     66 H362         9.7790     8.6190    32.8510 hc         1 CNO       0.028533
     67 H363        10.9430     9.0370    31.5850 hc         1 CNO       0.028533
     68 H371        11.8320     6.6840    31.2700 hc         1 CNO       0.028533
     69 H372        10.5250     6.1670    32.3540 hc         1 CNO       0.028533
     70 H373        12.2020     5.6760    32.6810 hc         1 CNO       0.028533
@<TRIPOS>BOND
     1     1     2 1   
     2     1     3 1   
     3     1     4 1   
     4     4     5 1   
     5     4     6 1   
     6     4     7 1   
     7     5    41 1   
     8     5    42 1   
     9     5    43 1   
    10     6    44 1   
    11     6    45 1   
    12     6    46 1   
    13     7     8 1   
    14     8     9 ar  
    15     8    11 ar  
    16     9    10 ar  
    17     9    47 1   
    18    10    13 ar  
    19    10    48 1   
    20    11    12 ar  
    21    11    49 1   
    22    12    13 ar  
    23    12    50 1   
    24    13    14 1   
    25    14    15 1   
    26    14    51 1   
    27    14    52 1   
    28    15    16 2   
    29    15    17 1   
    30    17    18 1   
    31    17    53 1   
    32    18    19 ar  
    33    18    20 ar  
    34    19    23 ar  
    35    19    54 1   
    36    20    21 ar  
    37    20    55 1   
    38    21    22 ar  
    39    21    56 1   
    40    22    23 ar  
    41    22    57 1   
    42    23    24 1   
    43    24    25 1   
    44    24    58 1   
    45    25    26 2   
    46    25    27 1   
    47    27    28 1   
    48    27    59 1   
    49    27    60 1   
    50    28    29 ar  
    51    28    31 ar  
    52    29    30 ar  
    53    29    61 1   
    54    30    33 ar  
    55    30    62 1   
    56    31    32 ar  
    57    31    63 1   
    58    32    33 ar  
    59    32    64 1   
    60    33    34 1   
    61    34    35 1   
    62    35    36 1   
    63    35    37 1   
    64    35    38 1   
    65    36    65 1   
    66    36    66 1   
    67    36    67 1   
    68    37    68 1   
    69    37    69 1   
    70    37    70 1   
    71    38    39 1   
    72    38    40 1   
@<TRIPOS>SUBSTRUCTURE
     1 CNO         1 TEMP              0 ****  ****    0 ROOT
