@<TRIPOS>MOLECULE
CNO
   70    72     1     0     0
SMALL
abcg2


@<TRIPOS>ATOM
      1 C1          15.3130    21.3370    43.6030 c          1 CNO       0.701000
      2 O2          14.5300    20.3650    43.6990 o          1 CNO      -0.709500
      3 O3          15.1490    22.3700    42.9100 o          1 CNO      -0.709500
      4 C4          16.5990    21.3000    44.4980 c3         1 CNO       0.041500
      5 C5          17.7280    22.2040    44.0120 c3         1 CNO      -0.077600
      6 C6          16.1770    21.7080    45.9080 c3         1 CNO      -0.077600
      7 O7          17.0960    19.9450    44.6700 os         1 CNO      -0.357100
      8 C8          17.4850    19.1770    43.6220 ca         1 CNO       0.208600
      9 C9          18.0780    17.9560    43.9640 ca         1 CNO      -0.174750
     10 C10         18.5090    17.0800    42.9810 ca         1 CNO      -0.065750
     11 C11         17.3390    19.4990    42.2710 ca         1 CNO      -0.174750
     12 C12         17.7790    18.6080    41.2950 ca         1 CNO      -0.065750
     13 C13         18.3690    17.3920    41.6260 ca         1 CNO      -0.162800
     14 C14         18.8080    16.4180    40.5570 c3         1 CNO      -0.086600
     15 C15         17.7260    15.3740    40.3120 c          1 CNO       0.606600
     16 O16         16.7410    15.6200    39.6240 o          1 CNO      -0.581600
     17 N17         17.9370    14.1870    40.9460 ns         1 CNO      -0.149500
     18 C18         17.1250    13.0410    40.9980 ca         1 CNO       0.015000
     19 C19         15.9300    12.9160    40.2970 ca         1 CNO      -0.194000
     20 C20         17.5710    11.9830    41.8020 ca         1 CNO      -0.186500
     21 C21         16.8180    10.8250    41.8870 ca         1 CNO      -0.063000
     22 C22         15.6200    10.6820    41.1920 ca         1 CNO      -0.186500
     23 C23         15.1780    11.7380    40.3950 ca         1 CNO       0.015000
     24 N24         13.9800    11.7100    39.6570 ns         1 CNO      -0.149500
     25 C25         13.0470    10.7240    39.5490 c          1 CNO       0.606600
     26 O26         13.1370     9.6290    40.0920 o          1 CNO      -0.581600
     27 C27         11.8350    11.1000    38.7020 c3         1 CNO      -0.086600
     28 C28         11.5370    10.0820    37.6300 ca         1 CNO      -0.162800
     29 C29         12.1940    10.1270    36.4030 ca         1 CNO      -0.065750
     30 C30         11.9380     9.1990    35.3990 ca         1 CNO      -0.174750
     31 C31         10.6080     9.0610    37.8340 ca         1 CNO      -0.065750
     32 C32         10.3380     8.1300    36.8440 ca         1 CNO      -0.174750
     33 C33         10.9960     8.1900    35.6100 ca         1 CNO       0.208600
     34 O34         10.6440     7.2290    34.7170 os         1 CNO      -0.357100
     35 C35         11.0820     7.2580    33.3320 c3         1 CNO       0.041500
     36 C36         10.4580     8.4540    32.6210 c3         1 CNO      -0.077600
     37 C37         10.5210     5.9580    32.7560 c3         1 CNO      -0.077600
     38 C38         12.6430     7.1770    33.2170 c          1 CNO       0.701000
     39 O39         13.2290     6.4590    34.0590 o          1 CNO      -0.709500
     40 O40         13.1670     7.7940    32.2580 o          1 CNO      -0.709500
     41 HC51        18.5840    22.1010    44.6820 hc         1 CNO       0.028533
     42 HC52        17.3980    23.2410    44.0240 hc         1 CNO       0.028533
     43 H53C        18.0480    21.9660    43.0000 hc         1 CNO       0.028533
     44 HC61        15.4150    21.0260    46.2870 hc         1 CNO       0.028533
     45 HC62        15.7690    22.7190    45.8950 hc         1 CNO       0.028533
     46 HC63        17.0370    21.6870    46.5800 hc         1 CNO       0.028533
     47 HC9         18.1940    17.7100    45.0120 ha         1 CNO       0.131500
     48 H10C        18.9650    16.1410    43.2710 ha         1 CNO       0.095750
     49 H11C        16.8870    20.4280    41.9630 ha         1 CNO       0.131500
     50 H12C        17.6570    18.8750    40.2520 ha         1 CNO       0.095750
     51 H141        19.7460    15.9400    40.8420 hc         1 CNO       0.053700
     52 H142        18.9640    16.9410    39.6140 hc         1 CNO       0.053700
     53 H17N        18.7930    14.1190    41.4760 hn         1 CNO       0.149000
     54 H19C        15.5840    13.7280    39.6790 ha         1 CNO       0.150000
     55 H20C        18.5000    12.0790    42.3500 ha         1 CNO       0.125500
     56 H21C        17.1660    10.0100    42.5090 ha         1 CNO       0.104000
     57 H22C        15.0410     9.7780    41.2650 ha         1 CNO       0.125500
     58 H24N        13.7840    12.5550    39.1420 hn         1 CNO       0.149000
     59 H271        11.9700    12.0870    38.2590 hc         1 CNO       0.053700
     60 H272        10.9910    11.1650    39.3950 hc         1 CNO       0.053700
     61 H29C        12.9220    10.9090    36.2160 ha         1 CNO       0.095750
     62 H30C        12.4720     9.2780    34.4640 ha         1 CNO       0.131500
     63 H31C        10.0800     8.9990    38.7790 ha         1 CNO       0.095750
     64 H32C         9.6070     7.3480    37.0050 ha         1 CNO       0.131500
     65 H361        10.8470     9.4040    32.9830 hc         1 CNO       0.028533
     66 H362         9.3770     8.4390    32.7740 hc         1 CNO       0.028533
     67 H363        10.6590     8.3940    31.5530 hc         1 CNO       0.028533
     68 H371        10.8120     5.8600    31.7100 hc         1 CNO       0.028533
     69 H372         9.4310     5.9580    32.8180 hc         1 CNO       0.028533
     70 H373        10.9080     5.1040    33.3120 hc         1 CNO       0.028533
@<TRIPOS>BOND
     1     1     2 1   
     2     1     3 1   
     3     1     4 1   
     4     4     5 1   
     5     4     6 1   
     6     4     7 1   
     7     5    41 1   
     8     5    42 1   
     9     5    43 1   
    10     6    44 1   
    11     6    45 1   
    12     6    46 1   
    13     7     8 1   
    14     8     9 ar  
    15     8    11 ar  
    16     9    10 ar  
    17     9    47 1   
    18    10    13 ar  
    19    10    48 1   
    20    11    12 ar  
    21    11    49 1   
    22    12    13 ar  
    23    12    50 1   
    24    13    14 1   
    25    14    15 1   
    26    14    51 1   
    27    14    52 1   
    28    15    16 2   
    29    15    17 1   
    30    17    18 1   
    31    17    53 1   
    32    18    19 ar  
    33    18    20 ar  
    34    19    23 ar  
    35    19    54 1   
    36    20    21 ar  
    37    20    55 1   
    38    21    22 ar  
    39    21    56 1   
    40    22    23 ar  
    41    22    57 1   
    42    23    24 1   
    43    24    25 1   
    44    24    58 1   
    45    25    26 2   
    46    25    27 1   
    47    27    28 1   
    48    27    59 1   
    49    27    60 1   
    50    28    29 ar  
    51    28    31 ar  
    52    29    30 ar  
    53    29    61 1   
    54    30    33 ar  
    55    30    62 1   
    56    31    32 ar  
    57    31    63 1   
    58    32    33 ar  
    59    32    64 1   
    60    33    34 1   
    61    34    35 1   
    62    35    36 1   
    63    35    37 1   
    64    35    38 1   
    65    36    65 1   
    66    36    66 1   
    67    36    67 1   
    68    37    68 1   
    69    37    69 1   
    70    37    70 1   
    71    38    39 1   
    72    38    40 1   
@<TRIPOS>SUBSTRUCTURE
     1 CNO         1 TEMP              0 ****  ****    0 ROOT
