@<TRIPOS>MOLECULE
CNP
   45    45     1     0     0
SMALL
No Charge or Current Charge


@<TRIPOS>ATOM
      1 C1          -2.1190    -1.3190    -1.5550 c          1 CNP       0.705000
      2 O1A         -3.0020    -1.4950    -2.3860 o          1 CNP      -0.711000
      3 O1B         -1.2090    -2.1350    -1.4850 o          1 CNP      -0.711000
      4 C2          -1.8100     0.1930    -1.1120 c6         1 CNP       0.047000
      5 C12         -2.2850     1.1930    -2.2300 c3         1 CNP      -0.017200
      6 C13         -1.5570     1.0810    -3.5610 c2         1 CNP      -0.162200
      7 C14         -2.1460     0.9760    -4.7630 c2         1 CNP      -0.350000
      8 C3          -2.5670     0.5230     0.2100 c6         1 CNP      -0.116400
      9 C4          -1.9280    -0.1970     1.4200 c6         1 CNP       0.156300
     10 O4          -2.6560     0.1340     2.6120 oh         1 CNP      -0.670000
     11 C5          -0.4250     0.1990     1.5450 c6         1 CNP       0.076700
     12 N5           0.2210    -0.4980     2.6830 ns         1 CNP      -0.489900
     13 C10          0.5370     0.0670     3.8960 c          1 CNP       0.605100
     14 O10          0.3850     1.2560     4.1360 o          1 CNP      -0.614100
     15 C11          1.1160    -0.9060     4.9170 c3         1 CNP      -0.181100
     16 C6           0.3020    -0.1080     0.2020 c6         1 CNP       0.146300
     17 O6          -0.3940     0.5300    -0.9150 os         1 CNP      -0.475000
     18 C7           1.7640     0.4580     0.1710 c3         1 CNP       0.151300
     19 O7           1.7010     1.8640    -0.1310 oh         1 CNP      -0.728000
     20 C8           2.6830    -0.2640    -0.8640 c3         1 CNP       0.135300
     21 O8           2.8190    -1.6570    -0.5260 oh         1 CNP      -0.619000
     22 C9           4.1140     0.3380    -0.9390 c3         1 CNP       0.126600
     23 O9           4.9430    -0.4640    -1.8020 oh         1 CNP      -0.707000
     24 H121        -3.3670     1.0960    -2.3850 hc         1 CNP       0.036700
     25 H122        -2.1480     2.2180    -1.8650 hc         1 CNP       0.036700
     26 H13         -0.4680     1.0930    -3.4810 ha         1 CNP       0.170000
     27 H141        -1.5600     0.9000    -5.6790 ha         1 CNP       0.147000
     28 H142        -3.2320     0.9600    -4.8700 ha         1 CNP       0.147000
     29 H31         -3.6220     0.2340     0.1130 hc         1 CNP       0.047700
     30 H32         -2.5570     1.6070     0.3900 hc         1 CNP       0.047700
     31 H4          -1.9830    -1.2830     1.2470 h1         1 CNP       0.053700
     32 HO4         -3.5780    -0.1750     2.4780 ho         1 CNP       0.436000
     33 H5          -0.3720     1.2840     1.7180 h1         1 CNP       0.098700
     34 HN5          0.3850    -1.4950     2.6030 hn         1 CNP       0.307500
     35 H111         1.3690    -0.4220     5.8680 hc         1 CNP       0.050033
     36 H112         0.4120    -1.7340     5.0600 hc         1 CNP       0.050033
     37 H113         1.9830    -1.4110     4.4780 hc         1 CNP       0.050033
     38 H6           0.3450    -1.1950     0.0610 h1         1 CNP       0.089700
     39 H7           2.2160     0.3110     1.1610 h1         1 CNP       0.055700
     40 HO7          0.8550     1.9430    -0.6400 ho         1 CNP       0.522000
     41 H8           2.2230    -0.1590    -1.8570 h1         1 CNP       0.117700
     42 HO8          3.6650    -1.9240    -0.9520 ho         1 CNP       0.415000
     43 H91          4.0560     1.3660    -1.3220 h1         1 CNP       0.020200
     44 H92          4.5450     0.3800     0.0700 h1         1 CNP       0.020200
     45 HO9          5.8150    -0.0080    -1.8710 ho         1 CNP       0.485000
@<TRIPOS>BOND
     1     1     2 1   
     2     1     3 1   
     3     1     4 1   
     4     4     5 1   
     5     4     8 1   
     6     4    17 1   
     7     5     6 1   
     8     5    24 1   
     9     5    25 1   
    10     6     7 2   
    11     6    26 1   
    12     7    27 1   
    13     7    28 1   
    14     8     9 1   
    15     8    29 1   
    16     8    30 1   
    17     9    10 1   
    18     9    11 1   
    19     9    31 1   
    20    10    32 1   
    21    11    12 1   
    22    11    16 1   
    23    11    33 1   
    24    12    13 1   
    25    12    34 1   
    26    13    14 2   
    27    13    15 1   
    28    15    35 1   
    29    15    36 1   
    30    15    37 1   
    31    16    17 1   
    32    16    18 1   
    33    16    38 1   
    34    18    19 1   
    35    18    20 1   
    36    18    39 1   
    37    19    40 1   
    38    20    21 1   
    39    20    22 1   
    40    20    41 1   
    41    21    42 1   
    42    22    23 1   
    43    22    43 1   
    44    22    44 1   
    45    23    45 1   
@<TRIPOS>SUBSTRUCTURE
     1 CNP         1 TEMP              0 ****  ****    0 ROOT
