@<TRIPOS>MOLECULE
CNP
   45    45     1     0     0
SMALL
abcg2


@<TRIPOS>ATOM
      1 C1          -1.9580    -1.1860    -1.5520 c          1 CNP       0.705000
      2 O1A         -3.1600    -1.5210    -1.5630 o          1 CNP      -0.711000
      3 O1B         -0.9860    -1.8750    -1.8970 o          1 CNP      -0.711000
      4 C2          -1.6880     0.2790    -1.1020 c6         1 CNP       0.047000
      5 C12         -2.0770     1.2060    -2.2610 c3         1 CNP      -0.017200
      6 C13         -1.3610     0.9090    -3.5400 c2         1 CNP      -0.162200
      7 C14         -1.9620     0.6990    -4.7050 c2         1 CNP      -0.350000
      8 C3          -2.4810     0.6520     0.1490 c6         1 CNP      -0.116400
      9 C4          -1.9540    -0.0820     1.3730 c6         1 CNP       0.156300
     10 O4          -2.6000     0.3200     2.5600 oh         1 CNP      -0.670000
     11 C5          -0.4660     0.2000     1.5380 c6         1 CNP       0.076700
     12 N5           0.0920    -0.5750     2.6200 ns         1 CNP      -0.489900
     13 C10          0.5880    -0.0610     3.7600 c          1 CNP       0.605100
     14 O10          0.6520     1.1390     3.9880 o          1 CNP      -0.614100
     15 C11          1.1010    -1.0810     4.7470 c3         1 CNP      -0.181100
     16 C6           0.2780    -0.1180     0.2320 c6         1 CNP       0.146300
     17 O6          -0.3150     0.5320    -0.8640 os         1 CNP      -0.475000
     18 C7           1.7250     0.3780     0.2550 c3         1 CNP       0.151300
     19 O7           1.7640     1.7860     0.2430 oh         1 CNP      -0.728000
     20 C8           2.5400    -0.2490    -0.8910 c3         1 CNP       0.135300
     21 O8           2.6720    -1.6390    -0.6810 oh         1 CNP      -0.619000
     22 C9           3.8920     0.4250    -1.0550 c3         1 CNP       0.126600
     23 O9           4.5810    -0.2020    -2.1130 oh         1 CNP      -0.707000
     24 H121        -3.1560     1.1470    -2.4140 hc         1 CNP       0.036700
     25 H122        -1.8530     2.2350    -1.9540 hc         1 CNP       0.036700
     26 H13         -0.2770     0.8880    -3.4940 ha         1 CNP       0.170000
     27 H141        -1.3980     0.5090    -5.6100 ha         1 CNP       0.147000
     28 H142        -3.0420     0.7100    -4.7990 ha         1 CNP       0.147000
     29 H31         -3.5370     0.4220     0.0010 hc         1 CNP       0.047700
     30 H32         -2.4010     1.7320     0.3200 hc         1 CNP       0.047700
     31 H4          -2.0850    -1.1640     1.2150 h1         1 CNP       0.053700
     32 HO4         -3.5350     0.1050     2.4780 ho         1 CNP       0.436000
     33 H5          -0.3350     1.2570     1.7840 h1         1 CNP       0.098700
     34 HN5          0.0480    -1.5790     2.5350 hn         1 CNP       0.307500
     35 H111         0.7120    -0.8570     5.7390 hc         1 CNP       0.050033
     36 H112         0.8400    -2.1070     4.4940 hc         1 CNP       0.050033
     37 H113         2.1880    -1.0100     4.8010 hc         1 CNP       0.050033
     38 H6           0.2770    -1.2050     0.0870 h1         1 CNP       0.089700
     39 H7           2.1910     0.0650     1.1970 h1         1 CNP       0.055700
     40 HO7          1.1580     2.0810    -0.4480 ho         1 CNP       0.522000
     41 H8           1.9800    -0.1470    -1.8270 h1         1 CNP       0.117700
     42 HO8          3.2120    -1.7770     0.1050 ho         1 CNP       0.415000
     43 H91          3.7410     1.4910    -1.2530 h1         1 CNP       0.020200
     44 H92          4.4540     0.3530    -0.1100 h1         1 CNP       0.020200
     45 HO9          5.4090     0.2680    -2.2430 ho         1 CNP       0.485000
@<TRIPOS>BOND
     1     1     2 1   
     2     1     3 1   
     3     1     4 1   
     4     4     5 1   
     5     4     8 1   
     6     4    17 1   
     7     5     6 1   
     8     5    24 1   
     9     5    25 1   
    10     6     7 2   
    11     6    26 1   
    12     7    27 1   
    13     7    28 1   
    14     8     9 1   
    15     8    29 1   
    16     8    30 1   
    17     9    10 1   
    18     9    11 1   
    19     9    31 1   
    20    10    32 1   
    21    11    12 1   
    22    11    16 1   
    23    11    33 1   
    24    12    13 1   
    25    12    34 1   
    26    13    14 2   
    27    13    15 1   
    28    15    35 1   
    29    15    36 1   
    30    15    37 1   
    31    16    17 1   
    32    16    18 1   
    33    16    38 1   
    34    18    19 1   
    35    18    20 1   
    36    18    39 1   
    37    19    40 1   
    38    20    21 1   
    39    20    22 1   
    40    20    41 1   
    41    21    42 1   
    42    22    23 1   
    43    22    43 1   
    44    22    44 1   
    45    23    45 1   
@<TRIPOS>SUBSTRUCTURE
     1 CNP         1 TEMP              0 ****  ****    0 ROOT
