@<TRIPOS>MOLECULE
CNQ
   30    32     1     0     0
SMALL
No Charge or Current Charge


@<TRIPOS>ATOM
      1 C1          12.0340    -4.7470    46.7340 ca         1 CNQ      -0.110000
      2 C2          10.7610    -4.1850    46.8660 ca         1 CNQ      -0.054000
      3 C3          10.2300    -3.3610    45.8610 ca         1 CNQ       0.210000
      4 C4          11.0030    -3.0890    44.6730 ca         1 CNQ       0.267000
      5 C5          12.3020    -3.6740    44.5440 ca         1 CNQ      -0.124600
      6 C6          12.7940    -4.4940    45.5870 ca         1 CNQ      -0.040000
      7 N7           8.9870    -2.8420    46.0530 nb         1 CNQ      -0.614000
      8 C8           8.5030    -2.0490    45.0630 ca         1 CNQ       0.304900
      9 C9           9.2420    -1.7580    43.8770 cp         1 CNQ       0.390500
     10 N10         10.4850    -2.2810    43.7030 nb         1 CNQ      -0.677000
     11 C11         13.2130    -3.4780    43.3400 c          1 CNQ       0.610700
     12 N12         12.7920    -2.7630    42.2820 nt         1 CNQ      -0.599000
     13 O13         14.3370    -3.9530    43.2890 o          1 CNQ      -0.628100
     14 C14          8.7140    -0.8700    42.7780 cp         1 CNQ      -0.156500
     15 C15          7.3190    -0.6460    42.6150 ca         1 CNQ      -0.072500
     16 C16          6.8290     0.1830    41.5900 ca         1 CNQ      -0.106500
     17 C17          7.7180     0.8070    40.7040 ca         1 CNQ       0.137000
     18 C18          9.0980     0.6050    40.8390 ca         1 CNQ      -0.106500
     19 C19          9.5920    -0.2240    41.8620 ca         1 CNQ      -0.072500
     20 Cl24         7.1020     1.8440    39.4230 cl         1 CNQ      -0.200000
     21 H1          12.4330    -5.3830    47.5220 ha         1 CNQ       0.129000
     22 H2          10.1760    -4.3870    47.7600 ha         1 CNQ       0.138000
     23 H6          13.7800    -4.9490    45.5120 ha         1 CNQ       0.150000
     24 H8           7.5150    -1.6260    45.2310 h4         1 CNQ       0.035100
     25 H121        13.3970    -2.6350    41.4860 hn         1 CNQ       0.334000
     26 H122        11.8640    -2.3610    42.3120 hn         1 CNQ       0.334000
     27 H15          6.6000    -1.1260    43.2740 ha         1 CNQ       0.126000
     28 H16          5.7580     0.3380    41.4810 ha         1 CNQ       0.135000
     29 H18          9.7870     1.0910    40.1530 ha         1 CNQ       0.135000
     30 H19         10.6680    -0.3540    41.9490 ha         1 CNQ       0.126000
@<TRIPOS>BOND
     1     1     2 ar  
     2     1     6 ar  
     3     1    21 1   
     4     2     3 ar  
     5     2    22 1   
     6     3     4 ar  
     7     3     7 ar  
     8     4     5 ar  
     9     4    10 ar  
    10     5     6 ar  
    11     5    11 1   
    12     6    23 1   
    13     7     8 ar  
    14     8     9 ar  
    15     8    24 1   
    16     9    10 ar  
    17     9    14 1   
    18    11    12 1   
    19    11    13 2   
    20    12    25 1   
    21    12    26 1   
    22    14    15 ar  
    23    14    19 ar  
    24    15    16 ar  
    25    15    27 1   
    26    16    17 ar  
    27    16    28 1   
    28    17    18 ar  
    29    17    20 1   
    30    18    19 ar  
    31    18    29 1   
    32    19    30 1   
@<TRIPOS>SUBSTRUCTURE
     1 CNQ         1 TEMP              0 ****  ****    0 ROOT
