@<TRIPOS>MOLECULE
CNQ
   30    32     1     0     0
SMALL
abcg2


@<TRIPOS>ATOM
      1 C1          11.9980    -4.6930    46.7080 ca         1 CNQ      -0.110000
      2 C2          10.7580    -4.1300    46.8560 ca         1 CNQ      -0.054000
      3 C3          10.2360    -3.3140    45.8320 ca         1 CNQ       0.210000
      4 C4          10.9900    -3.0720    44.6450 ca         1 CNQ       0.267000
      5 C5          12.2830    -3.6690    44.5100 ca         1 CNQ      -0.124600
      6 C6          12.7480    -4.4560    45.5420 ca         1 CNQ      -0.040000
      7 N7           9.0060    -2.7570    45.9980 nb         1 CNQ      -0.614000
      8 C8           8.5410    -2.0040    45.0380 ca         1 CNQ       0.304900
      9 C9           9.2730    -1.7550    43.8400 cp         1 CNQ       0.390500
     10 N10         10.4660    -2.2840    43.6740 nb         1 CNQ      -0.677000
     11 C11         13.2020    -3.5170    43.3200 c          1 CNQ       0.610700
     12 N12         12.7330    -2.8480    42.2570 nt         1 CNQ      -0.599000
     13 O13         14.3330    -4.0110    43.3410 o          1 CNQ      -0.628100
     14 C14          8.7330    -0.8830    42.7810 cp         1 CNQ      -0.156500
     15 C15          7.3550    -0.7400    42.5900 ca         1 CNQ      -0.072500
     16 C16          6.8560     0.0820    41.5890 ca         1 CNQ      -0.106500
     17 C17          7.7460     0.7730    40.7780 ca         1 CNQ       0.137000
     18 C18          9.1200     0.6510    40.9450 ca         1 CNQ      -0.106500
     19 C19          9.6050    -0.1780    41.9430 ca         1 CNQ      -0.072500
     20 CL24         7.1260     1.8200    39.5230 cl         1 CNQ      -0.200000
     21 H1          12.4110    -5.3220    47.4860 ha         1 CNQ       0.129000
     22 H2          10.1570    -4.2910    47.7420 ha         1 CNQ       0.138000
     23 H6          13.7250    -4.9040    45.4360 ha         1 CNQ       0.150000
     24 H8           7.5700    -1.5470    45.1900 h4         1 CNQ       0.035100
     25 H121        13.3330    -2.7240    41.4570 hn         1 CNQ       0.334000
     26 H122        11.8140    -2.4200    42.3020 hn         1 CNQ       0.334000
     27 H15          6.6550    -1.2880    43.2060 ha         1 CNQ       0.126000
     28 H16          5.7900     0.1800    41.4390 ha         1 CNQ       0.135000
     29 H18          9.7980     1.2020    40.3090 ha         1 CNQ       0.135000
     30 H19         10.6720    -0.2690    42.0870 ha         1 CNQ       0.126000
@<TRIPOS>BOND
     1     1     2 ar  
     2     1     6 ar  
     3     1    21 1   
     4     2     3 ar  
     5     2    22 1   
     6     3     4 ar  
     7     3     7 ar  
     8     4     5 ar  
     9     4    10 ar  
    10     5     6 ar  
    11     5    11 1   
    12     6    23 1   
    13     7     8 ar  
    14     8     9 ar  
    15     8    24 1   
    16     9    10 ar  
    17     9    14 1   
    18    11    12 1   
    19    11    13 2   
    20    12    25 1   
    21    12    26 1   
    22    14    15 ar  
    23    14    19 ar  
    24    15    16 ar  
    25    15    27 1   
    26    16    17 ar  
    27    16    28 1   
    28    17    18 ar  
    29    17    20 1   
    30    18    19 ar  
    31    18    29 1   
    32    19    30 1   
@<TRIPOS>SUBSTRUCTURE
     1 CNQ         1 TEMP              0 ****  ****    0 ROOT
