@<TRIPOS>MOLECULE
CNR
   10     9     1     0     0
SMALL
No Charge or Current Charge


@<TRIPOS>ATOM
      1 C1           0.2560     2.0360    -2.0330 c          1 CNR       0.723000
      2 C2          -0.6380     2.0060    -0.7540 c3         1 CNR       0.031300
      3 C3          -0.2250     0.9030     0.2470 c3         1 CNR      -0.077100
      4 Cl          -2.4280     1.8610    -1.1330 cl         1 CNR      -0.372000
      5 O1A          0.4790     0.9880    -2.6270 o          1 CNR      -0.713500
      6 O1B          0.6970     3.1180    -2.4020 o          1 CNR      -0.713500
      7 H2          -0.5190     2.9760    -0.2540 h1         1 CNR       0.043700
      8 H31          0.8330     1.0060     0.5170 hc         1 CNR       0.025700
      9 H32         -0.3770    -0.0950    -0.1820 hc         1 CNR       0.025700
     10 H33         -0.8200     0.9760     1.1650 hc         1 CNR       0.025700
@<TRIPOS>BOND
     1     1     2 1   
     2     1     5 1   
     3     1     6 1   
     4     2     3 1   
     5     2     4 1   
     6     2     7 1   
     7     3     8 1   
     8     3     9 1   
     9     3    10 1   
@<TRIPOS>SUBSTRUCTURE
     1 CNR         1 TEMP              0 ****  ****    0 ROOT
