@<TRIPOS>MOLECULE
CNR
   10     9     1     0     0
SMALL
bcc


@<TRIPOS>ATOM
      1 C1           0.2010     1.9650    -2.0570 c          1 CNR       0.933600
      2 C2          -0.7080     1.9400    -0.8060 c3         1 CNR      -0.045300
      3 C3          -0.1430     1.0550     0.2890 c3         1 CNR      -0.077100
      4 CL          -2.3860     1.3830    -1.2010 cl         1 CNR      -0.295400
      5 O1A         -0.2150     1.4880    -3.1200 o          1 CNR      -0.818800
      6 O1B          1.3130     2.4790    -1.8260 o          1 CNR      -0.818800
      7 H2          -0.8290     2.9580    -0.4330 h1         1 CNR       0.043700
      8 H31          0.8330     1.4330     0.5910 hc         1 CNR       0.025700
      9 H32         -0.0200     0.0290    -0.0600 hc         1 CNR       0.025700
     10 H33         -0.7880     1.0440     1.1670 hc         1 CNR       0.025700
@<TRIPOS>BOND
     1     1     2 1   
     2     1     5 1   
     3     1     6 1   
     4     2     3 1   
     5     2     4 1   
     6     2     7 1   
     7     3     8 1   
     8     3     9 1   
     9     3    10 1   
@<TRIPOS>SUBSTRUCTURE
     1 CNR         1 TEMP              0 ****  ****    0 ROOT
