@<TRIPOS>MOLECULE
CNS
   74    73     1     0     0
SMALL
No Charge or Current Charge


@<TRIPOS>ATOM
      1 C24         -1.4740    -1.2560    14.9690 c3         1 CNS      -0.088100
      2 C23         -0.4720    -1.0170    13.8230 c3         1 CNS      -0.075400
      3 C22         -1.1510    -0.8910    12.4420 c3         1 CNS      -0.075400
      4 C21         -0.1470    -0.6510    11.2940 c3         1 CNS      -0.074400
      5 C20         -0.8260    -0.5240     9.9130 c3         1 CNS      -0.074400
      6 C19          0.1790    -0.2850     8.7640 c3         1 CNS      -0.074400
      7 C18         -0.5010    -0.1580     7.3830 c3         1 CNS      -0.074400
      8 C17          0.5040     0.0810     6.2350 c3         1 CNS      -0.074400
      9 C16         -0.1760     0.2080     4.8540 c3         1 CNS      -0.074400
     10 C15          0.8290     0.4480     3.7060 c3         1 CNS      -0.074400
     11 C14          0.1500     0.5750     2.3250 c3         1 CNS      -0.074400
     12 C13          1.1550     0.8150     1.1770 c3         1 CNS      -0.075400
     13 C12          0.4750     0.9420    -0.2040 c3         1 CNS      -0.073400
     14 C11          1.4810     1.1820    -1.3520 c3         1 CNS      -0.075400
     15 C10          0.8010     1.3100    -2.7330 c3         1 CNS      -0.083400
     16 C9           1.8050     1.5490    -3.8770 c3         1 CNS       0.167600
     17 O2           1.0540     1.6480    -5.0990 os         1 CNS      -0.455100
     18 C8           1.7440     1.8610    -6.2630 c          1 CNS       0.594100
     19 C7           0.8110     1.9170    -7.4750 c3         1 CNS      -0.137400
     20 C6           0.6710     0.5280    -8.1410 c3         1 CNS      -0.068400
     21 O1           2.9620     1.9520    -6.3400 o          1 CNS      -0.490000
     22 C3          -1.3540    -0.8400   -11.2540 c3         1 CNS      -0.075400
     23 C4          -0.4110    -0.8490   -10.0300 c3         1 CNS      -0.075400
     24 C5          -0.2720     0.5370    -9.3650 c3         1 CNS      -0.075400
     25 C2          -1.4940    -2.2260   -11.9200 c3         1 CNS      -0.075400
     26 C1          -2.4350    -2.2170   -13.1400 c3         1 CNS      -0.088100
     27 H241        -0.9470    -1.3390    15.9270 hc         1 CNS       0.031367
     28 H242        -2.1870    -0.4260    15.0410 hc         1 CNS       0.031367
     29 H243        -2.0370    -2.1830    14.8060 hc         1 CNS       0.031367
     30 H231         0.0980    -0.1040    14.0330 hc         1 CNS       0.036700
     31 H232         0.2470    -1.8450    13.8000 hc         1 CNS       0.036700
     32 H221        -1.7220    -1.8050    12.2360 hc         1 CNS       0.036700
     33 H222        -1.8710    -0.0630    12.4690 hc         1 CNS       0.036700
     34 H211         0.4240     0.2630    11.4990 hc         1 CNS       0.036700
     35 H212         0.5730    -1.4790    11.2660 hc         1 CNS       0.036700
     36 H201        -1.3970    -1.4390     9.7070 hc         1 CNS       0.036700
     37 H202        -1.5460     0.3040     9.9400 hc         1 CNS       0.036700
     38 H191         0.7500     0.6290     8.9700 hc         1 CNS       0.036700
     39 H192         0.8980    -1.1130     8.7370 hc         1 CNS       0.036700
     40 H181        -1.0720    -1.0730     7.1770 hc         1 CNS       0.036700
     41 H182        -1.2200     0.6700     7.4110 hc         1 CNS       0.036700
     42 H171         1.0750     0.9950     6.4410 hc         1 CNS       0.037200
     43 H172         1.2230    -0.7470     6.2080 hc         1 CNS       0.037200
     44 H161        -0.7470    -0.7060     4.6480 hc         1 CNS       0.037700
     45 H162        -0.8950     1.0360     4.8810 hc         1 CNS       0.037700
     46 H151         1.4000     1.3620     3.9120 hc         1 CNS       0.037700
     47 H152         1.5490    -0.3800     3.6780 hc         1 CNS       0.037700
     48 H141        -0.5700     1.4030     2.3520 hc         1 CNS       0.037700
     49 H142        -0.4210    -0.3390     2.1190 hc         1 CNS       0.037700
     50 H131         1.7260     1.7290     1.3830 hc         1 CNS       0.037700
     51 H132         1.8740    -0.0130     1.1490 hc         1 CNS       0.037700
     52 H121        -0.0960     0.0280    -0.4100 hc         1 CNS       0.039700
     53 H122        -0.2440     1.7700    -0.1760 hc         1 CNS       0.039700
     54 H111         2.0520     2.0960    -1.1460 hc         1 CNS       0.040700
     55 H112         2.2000     0.3540    -1.3800 hc         1 CNS       0.040700
     56 H101         0.2320     0.3960    -2.9430 hc         1 CNS       0.052700
     57 H102         0.0840     2.1400    -2.7090 hc         1 CNS       0.052700
     58 H91          2.3660     2.4740    -3.6880 h1         1 CNS       0.048200
     59 H92          2.5160     0.7130    -3.9230 h1         1 CNS       0.048200
     60 H71         -0.1870     2.2260    -7.1430 hc         1 CNS       0.070200
     61 H72          1.2130     2.6280    -8.2060 hc         1 CNS       0.070200
     62 H61          1.6630     0.1760    -8.4520 hc         1 CNS       0.054200
     63 H62          0.2950    -0.1910    -7.4010 hc         1 CNS       0.054200
     64 H31         -2.3460    -0.4890   -10.9420 hc         1 CNS       0.036700
     65 H32         -0.9780    -0.1220   -11.9930 hc         1 CNS       0.036700
     66 H41          0.5800    -1.2000   -10.3430 hc         1 CNS       0.039700
     67 H42         -0.7880    -1.5670    -9.2910 hc         1 CNS       0.039700
     68 H51         -1.2630     0.8890    -9.0530 hc         1 CNS       0.037700
     69 H52          0.1050     1.2560   -10.1040 hc         1 CNS       0.037700
     70 H21         -0.5050    -2.5800   -12.2350 hc         1 CNS       0.037700
     71 H22         -1.8720    -2.9470   -11.1840 hc         1 CNS       0.037700
     72 H11         -2.5020    -3.2200   -13.5780 hc         1 CNS       0.031700
     73 H12         -3.4440    -1.9010   -12.8500 hc         1 CNS       0.031700
     74 H13         -2.0640    -1.5310   -13.9110 hc         1 CNS       0.031700
@<TRIPOS>BOND
     1     1     2 1   
     2     1    27 1   
     3     1    28 1   
     4     1    29 1   
     5     2     3 1   
     6     2    30 1   
     7     2    31 1   
     8     3     4 1   
     9     3    32 1   
    10     3    33 1   
    11     4     5 1   
    12     4    34 1   
    13     4    35 1   
    14     5     6 1   
    15     5    36 1   
    16     5    37 1   
    17     6     7 1   
    18     6    38 1   
    19     6    39 1   
    20     7     8 1   
    21     7    40 1   
    22     7    41 1   
    23     8     9 1   
    24     8    42 1   
    25     8    43 1   
    26     9    10 1   
    27     9    44 1   
    28     9    45 1   
    29    10    11 1   
    30    10    46 1   
    31    10    47 1   
    32    11    12 1   
    33    11    48 1   
    34    11    49 1   
    35    12    13 1   
    36    12    50 1   
    37    12    51 1   
    38    13    14 1   
    39    13    52 1   
    40    13    53 1   
    41    14    15 1   
    42    14    54 1   
    43    14    55 1   
    44    15    16 1   
    45    15    56 1   
    46    15    57 1   
    47    16    17 1   
    48    16    58 1   
    49    16    59 1   
    50    17    18 1   
    51    18    19 1   
    52    18    21 2   
    53    19    20 1   
    54    19    60 1   
    55    19    61 1   
    56    20    24 1   
    57    20    62 1   
    58    20    63 1   
    59    22    23 1   
    60    22    25 1   
    61    22    64 1   
    62    22    65 1   
    63    23    24 1   
    64    23    66 1   
    65    23    67 1   
    66    24    68 1   
    67    24    69 1   
    68    25    26 1   
    69    25    70 1   
    70    25    71 1   
    71    26    72 1   
    72    26    73 1   
    73    26    74 1   
@<TRIPOS>SUBSTRUCTURE
     1 CNS         1 TEMP              0 ****  ****    0 ROOT
