@<TRIPOS>MOLECULE
CNS
   74    73     1     0     0
SMALL
bcc


@<TRIPOS>ATOM
      1 C24         -0.7480    -0.0060    15.3830 c3         1 CNS      -0.088100
      2 C23          0.1500    -0.0110    14.1530 c3         1 CNS      -0.075400
      3 C22         -0.6390    -0.0140    12.8490 c3         1 CNS      -0.075400
      4 C21          0.2450    -0.0180    11.6070 c3         1 CNS      -0.074400
      5 C20         -0.5480    -0.0180    10.3060 c3         1 CNS      -0.074400
      6 C19          0.3340    -0.0210     9.0630 c3         1 CNS      -0.074400
      7 C18         -0.4590    -0.0200     7.7620 c3         1 CNS      -0.074400
      8 C17          0.4240    -0.0250     6.5200 c3         1 CNS      -0.074400
      9 C16         -0.3670    -0.0220     5.2170 c3         1 CNS      -0.074400
     10 C15          0.5190    -0.0260     3.9780 c3         1 CNS      -0.074400
     11 C14         -0.2660    -0.0210     2.6720 c3         1 CNS      -0.074400
     12 C13          0.6270    -0.0290     1.4380 c3         1 CNS      -0.075400
     13 C12         -0.1520    -0.0100     0.1280 c3         1 CNS      -0.073400
     14 C11          0.7530    -0.0200    -1.0970 c3         1 CNS      -0.075400
     15 C10         -0.0230    -0.0040    -2.4100 c3         1 CNS      -0.083400
     16 C9           0.9190     0.0010    -3.5950 c3         1 CNS       0.144400
     17 O2           0.1330     0.0090    -4.7940 os         1 CNS      -0.431900
     18 C8           0.7700     0.0200    -5.9590 c          1 CNS       0.643100
     19 C7          -0.1930     0.0300    -7.1160 c3         1 CNS      -0.137400
     20 C6           0.4870     0.0110    -8.4760 c3         1 CNS      -0.068400
     21 O1           1.9730     0.0210    -6.0560 o          1 CNS      -0.539000
     22 C3          -0.8510     0.0030   -12.1420 c3         1 CNS      -0.075400
     23 C4           0.1450    -0.0010   -10.9890 c3         1 CNS      -0.075400
     24 C5          -0.5210     0.0160    -9.6180 c3         1 CNS      -0.075400
     25 C2          -0.1840    -0.0140   -13.5120 c3         1 CNS      -0.075400
     26 C1          -1.1870    -0.0090   -14.6570 c3         1 CNS      -0.088100
     27 H241        -0.1680    -0.0110    16.3070 hc         1 CNS       0.031367
     28 H242        -1.3860     0.8800    15.3990 hc         1 CNS       0.031367
     29 H243        -1.4000    -0.8810    15.3960 hc         1 CNS       0.031367
     30 H231         0.8090     0.8630    14.1750 hc         1 CNS       0.036700
     31 H232         0.8070    -0.8860    14.1810 hc         1 CNS       0.036700
     32 H221        -1.2990    -0.8880    12.8270 hc         1 CNS       0.036700
     33 H222        -1.2970     0.8620    12.8230 hc         1 CNS       0.036700
     34 H211         0.9060     0.8570    11.6300 hc         1 CNS       0.036700
     35 H212         0.9020    -0.8940    11.6320 hc         1 CNS       0.036700
     36 H201        -1.2080    -0.8920    10.2840 hc         1 CNS       0.036700
     37 H202        -1.2060     0.8590    10.2810 hc         1 CNS       0.036700
     38 H191         0.9950     0.8530     9.0860 hc         1 CNS       0.036700
     39 H192         0.9910    -0.8980     9.0870 hc         1 CNS       0.036700
     40 H181        -1.1210    -0.8930     7.7390 hc         1 CNS       0.036700
     41 H182        -1.1150     0.8570     7.7370 hc         1 CNS       0.036700
     42 H171         1.0870     0.8480     6.5430 hc         1 CNS       0.037200
     43 H172         1.0800    -0.9020     6.5450 hc         1 CNS       0.037200
     44 H161        -1.0290    -0.8950     5.1930 hc         1 CNS       0.037700
     45 H162        -1.0220     0.8560     5.1920 hc         1 CNS       0.037700
     46 H151         1.1830     0.8450     4.0050 hc         1 CNS       0.037700
     47 H152         1.1740    -0.9050     4.0030 hc         1 CNS       0.037700
     48 H141        -0.9170     0.8610     2.6440 hc         1 CNS       0.037700
     49 H142        -0.9320    -0.8900     2.6440 hc         1 CNS       0.037700
     50 H131         1.2990     0.8370     1.4720 hc         1 CNS       0.037700
     51 H132         1.2720    -0.9140     1.4630 hc         1 CNS       0.037700
     52 H121        -0.8240    -0.8750     0.0910 hc         1 CNS       0.039700
     53 H122        -0.7950     0.8770     0.0980 hc         1 CNS       0.039700
     54 H111         1.4240     0.8450    -1.0570 hc         1 CNS       0.040700
     55 H112         1.3970    -0.9060    -1.0640 hc         1 CNS       0.040700
     56 H101        -0.6770    -0.8790    -2.4610 hc         1 CNS       0.052700
     57 H102        -0.6660     0.8800    -2.4460 hc         1 CNS       0.052700
     58 H91          1.5650     0.8820    -3.5680 h1         1 CNS       0.048200
     59 H92          1.5600    -0.8850    -3.5790 h1         1 CNS       0.048200
     60 H71         -0.8660    -0.8270    -7.0100 hc         1 CNS       0.070200
     61 H72         -0.8320     0.9140    -7.0190 hc         1 CNS       0.070200
     62 H61          1.1470     0.8770    -8.5720 hc         1 CNS       0.054200
     63 H62          1.1250    -0.8720    -8.5590 hc         1 CNS       0.054200
     64 H31         -1.5150    -0.8640   -12.0510 hc         1 CNS       0.036700
     65 H32         -1.4950     0.8860   -12.0630 hc         1 CNS       0.036700
     66 H41          0.8090     0.8660   -11.0800 hc         1 CNS       0.039700
     67 H42          0.7890    -0.8830   -11.0690 hc         1 CNS       0.039700
     68 H51         -1.1840    -0.8500    -9.5250 hc         1 CNS       0.037700
     69 H52         -1.1630     0.9000    -9.5370 hc         1 CNS       0.037700
     70 H21          0.4800     0.8520   -13.6010 hc         1 CNS       0.037700
     71 H22          0.4590    -0.8960   -13.5900 hc         1 CNS       0.037700
     72 H11         -0.6900    -0.0190   -15.6280 hc         1 CNS       0.031700
     73 H12         -1.8400    -0.8820   -14.6110 hc         1 CNS       0.031700
     74 H13         -1.8210     0.8790   -14.6200 hc         1 CNS       0.031700
@<TRIPOS>BOND
     1     1     2 1   
     2     1    27 1   
     3     1    28 1   
     4     1    29 1   
     5     2     3 1   
     6     2    30 1   
     7     2    31 1   
     8     3     4 1   
     9     3    32 1   
    10     3    33 1   
    11     4     5 1   
    12     4    34 1   
    13     4    35 1   
    14     5     6 1   
    15     5    36 1   
    16     5    37 1   
    17     6     7 1   
    18     6    38 1   
    19     6    39 1   
    20     7     8 1   
    21     7    40 1   
    22     7    41 1   
    23     8     9 1   
    24     8    42 1   
    25     8    43 1   
    26     9    10 1   
    27     9    44 1   
    28     9    45 1   
    29    10    11 1   
    30    10    46 1   
    31    10    47 1   
    32    11    12 1   
    33    11    48 1   
    34    11    49 1   
    35    12    13 1   
    36    12    50 1   
    37    12    51 1   
    38    13    14 1   
    39    13    52 1   
    40    13    53 1   
    41    14    15 1   
    42    14    54 1   
    43    14    55 1   
    44    15    16 1   
    45    15    56 1   
    46    15    57 1   
    47    16    17 1   
    48    16    58 1   
    49    16    59 1   
    50    17    18 1   
    51    18    19 1   
    52    18    21 2   
    53    19    20 1   
    54    19    60 1   
    55    19    61 1   
    56    20    24 1   
    57    20    62 1   
    58    20    63 1   
    59    22    23 1   
    60    22    25 1   
    61    22    64 1   
    62    22    65 1   
    63    23    24 1   
    64    23    66 1   
    65    23    67 1   
    66    24    68 1   
    67    24    69 1   
    68    25    26 1   
    69    25    70 1   
    70    25    71 1   
    71    26    72 1   
    72    26    73 1   
    73    26    74 1   
@<TRIPOS>SUBSTRUCTURE
     1 CNS         1 TEMP              0 ****  ****    0 ROOT
