@<TRIPOS>MOLECULE
CNT
   26    26     1     0     0
SMALL
abcg2


@<TRIPOS>ATOM
      1 N           -0.2600    -0.3070     0.2310 n7         1 CNT      -0.863400
      2 CM          -0.1890    -1.4880     1.0690 c3         1 CNT       0.158100
      3 CA           1.0030     0.4100     0.1510 c3         1 CNT       0.025500
      4 CB           0.8640     1.4980    -0.9230 c3         1 CNT      -0.009100
      5 CG           2.0970     2.3380    -1.0920 ca         1 CNT      -0.061300
      6 CD2          2.2440     3.5360    -0.4050 ca         1 CNT      -0.031000
      7 CE2          3.3920     4.2970    -0.5510 ca         1 CNT       0.032000
      8 CL           3.5460     5.7960     0.3160 cl         1 CNT      -0.243000
      9 CZ           4.4360     3.8940    -1.3820 ca         1 CNT       0.127100
     10 OH           5.5650     4.5990    -1.5590 oh         1 CNT      -0.547100
     11 CD1          4.2880     2.6910    -2.0670 ca         1 CNT      -0.152000
     12 CE1          3.1390     1.9330    -1.9220 ca         1 CNT      -0.070000
     13 C            1.4440     1.0470     1.4900 c          1 CNT       0.690000
     14 O            0.5650     1.7060     2.0870 o          1 CNT      -0.729500
     15 OXT          2.6210     0.8720     1.8540 o          1 CNT      -0.729500
     16 H           -0.9380     0.3290     0.6360 hn         1 CNT       0.409000
     17 HMC1         0.4930    -2.2170     0.6270 h1         1 CNT       0.014700
     18 HMC2        -1.1720    -1.9580     1.1250 h1         1 CNT       0.014700
     19 HMC3         0.1460    -1.3070     2.0990 h1         1 CNT       0.014700
     20 HA           1.7700    -0.3000    -0.1760 h1         1 CNT       0.044700
     21 HBC1         0.6110     1.0180    -1.8710 hc         1 CNT       0.035200
     22 HBC2         0.0180     2.1400    -0.6620 hc         1 CNT       0.035200
     23 HD2          1.4590     3.8810     0.2560 ha         1 CNT       0.149000
     24 HH           5.5570     5.4080    -1.0310 ho         1 CNT       0.467000
     25 HD1          5.0860     2.3590    -2.7200 ha         1 CNT       0.112000
     26 HE1          3.0540     1.0050    -2.4740 ha         1 CNT       0.109000
@<TRIPOS>BOND
     1     1     2 1   
     2     1     3 1   
     3     1    16 1   
     4     2    17 1   
     5     2    18 1   
     6     2    19 1   
     7     3     4 1   
     8     3    13 1   
     9     3    20 1   
    10     4     5 1   
    11     4    21 1   
    12     4    22 1   
    13     5     6 ar  
    14     5    12 ar  
    15     6     7 ar  
    16     6    23 1   
    17     7     8 1   
    18     7     9 ar  
    19     9    10 1   
    20     9    11 ar  
    21    10    24 1   
    22    11    12 ar  
    23    11    25 1   
    24    12    26 1   
    25    13    14 1   
    26    13    15 1   
@<TRIPOS>SUBSTRUCTURE
     1 CNT         1 TEMP              0 ****  ****    0 ROOT
