@<TRIPOS>MOLECULE
CNT
   26    26     1     0     0
SMALL
No Charge or Current Charge


@<TRIPOS>ATOM
      1 N           -0.2590    -0.3830     0.1990 n7         1 CNT      -0.863400
      2 CM          -0.1560    -1.6420     0.9600 c3         1 CNT       0.158100
      3 CA           0.9810     0.4730     0.1960 c3         1 CNT       0.025500
      4 CB           0.8090     1.6190    -0.8340 c3         1 CNT      -0.009100
      5 CG           2.0930     2.4120    -1.0490 ca         1 CNT      -0.061300
      6 CD2          2.2620     3.6740    -0.4440 ca         1 CNT      -0.031000
      7 CE2          3.4480     4.4020    -0.6420 ca         1 CNT       0.032000
      8 Cl           3.6370     5.9800     0.1260 cl         1 CNT      -0.243000
      9 CZ           4.4760     3.8710    -1.4480 ca         1 CNT       0.127100
     10 OH           5.6340     4.5680    -1.6490 oh         1 CNT      -0.547100
     11 CD1          4.3110     2.6150    -2.0510 ca         1 CNT      -0.152000
     12 CE1          3.1240     1.8870    -1.8530 ca         1 CNT      -0.070000
     13 C            1.3870     1.0460     1.6130 c          1 CNT       0.690000
     14 O            0.5910     1.7640     2.2050 o          1 CNT      -0.729500
     15 OXT          2.4520     0.6890     2.1010 o          1 CNT      -0.729500
     16 H           -1.0180     0.1740     0.6160 hn         1 CNT       0.409000
     17 HMC1         0.6480    -2.2740     0.5600 h1         1 CNT       0.014700
     18 HMC2        -1.0960    -2.2050     0.8970 h1         1 CNT       0.014700
     19 HMC3         0.0530    -1.4440     2.0190 h1         1 CNT       0.014700
     20 HA           1.8280    -0.1390    -0.1470 h1         1 CNT       0.044700
     21 HBC1         0.4890     1.1920    -1.7930 hc         1 CNT       0.035200
     22 HBC2        -0.0030     2.2820    -0.5120 hc         1 CNT       0.035200
     23 HD2          1.4760     4.0910     0.1820 ha         1 CNT       0.149000
     24 HH           5.5630     5.4120    -1.1510 ho         1 CNT       0.467000
     25 HD1          5.1020     2.2030    -2.6730 ha         1 CNT       0.112000
     26 HE1          3.0050     0.9130    -2.3230 ha         1 CNT       0.109000
@<TRIPOS>BOND
     1     1     2 1   
     2     1     3 1   
     3     1    16 1   
     4     2    17 1   
     5     2    18 1   
     6     2    19 1   
     7     3     4 1   
     8     3    13 1   
     9     3    20 1   
    10     4     5 1   
    11     4    21 1   
    12     4    22 1   
    13     5     6 ar  
    14     5    12 ar  
    15     6     7 ar  
    16     6    23 1   
    17     7     8 1   
    18     7     9 ar  
    19     9    10 1   
    20     9    11 ar  
    21    10    24 1   
    22    11    12 ar  
    23    11    25 1   
    24    12    26 1   
    25    13    14 1   
    26    13    15 1   
@<TRIPOS>SUBSTRUCTURE
     1 CNT         1 TEMP              0 ****  ****    0 ROOT
