@<TRIPOS>MOLECULE
CNV
    9     8     1     0     0
SMALL
No Charge or Current Charge


@<TRIPOS>ATOM
      1 NAB         -1.8300     0.2330     0.0710 n1         1 CNV      -0.465000
      2 CAC         -0.7380    -0.1720     0.0610 c1         1 CNV       0.297900
      3 CAD          0.6510    -0.6500     0.0480 c3         1 CNV      -0.018300
      4 CAA          1.6820     0.4970    -0.0180 c3         1 CNV      -0.086100
      5 HAD          0.8250    -1.2500     0.9480 hc         1 CNV       0.068700
      6 HAA1         1.5850     1.1600     0.8510 hc         1 CNV       0.044700
      7 HAA2         2.7010     0.0930    -0.0260 hc         1 CNV       0.044700
      8 HAA3         1.5450     1.0950    -0.9270 hc         1 CNV       0.044700
      9 HXT          0.7850    -1.3140    -0.8140 hc         1 CNV       0.068700
@<TRIPOS>BOND
     1     1     2 3   
     2     2     3 1   
     3     3     4 1   
     4     3     5 1   
     5     3     9 1   
     6     4     6 1   
     7     4     7 1   
     8     4     8 1   
@<TRIPOS>SUBSTRUCTURE
     1 CNV         1 TEMP              0 ****  ****    0 ROOT
