@<TRIPOS>MOLECULE
CNV
    9     8     1     0     0
SMALL
bcc


@<TRIPOS>ATOM
      1 NAB         -1.7980     0.2200     0.0790 n1         1 CNV      -0.375800
      2 CAC         -0.7130    -0.1650     0.0570 c1         1 CNV       0.208700
      3 CAD          0.6610    -0.6430     0.0450 c3         1 CNV      -0.018300
      4 CAA          1.6720     0.5000    -0.0180 c3         1 CNV      -0.086100
      5 HAD          0.8100    -1.2460     0.9420 hc         1 CNV       0.068700
      6 HAA1         1.5760     1.1590     0.8430 hc         1 CNV       0.044700
      7 HAA2         2.6790     0.0870    -0.0210 hc         1 CNV       0.044700
      8 HAA3         1.5440     1.0910    -0.9220 hc         1 CNV       0.044700
      9 HXT          0.7750    -1.3110    -0.8100 hc         1 CNV       0.068700
@<TRIPOS>BOND
     1     1     2 3   
     2     2     3 1   
     3     3     4 1   
     4     3     5 1   
     5     3     9 1   
     6     4     6 1   
     7     4     7 1   
     8     4     8 1   
@<TRIPOS>SUBSTRUCTURE
     1 CNV         1 TEMP              0 ****  ****    0 ROOT
