@<TRIPOS>MOLECULE
CNW
   35    36     1     0     0
SMALL
No Charge or Current Charge


@<TRIPOS>ATOM
      1 NAX          5.3210     0.4950    -0.2190 nt         1 CNW      -0.604000
      2 CBC          4.4280    -0.4860    -0.0110 c          1 CNW       0.634300
      3 OAD          4.8470    -1.6110     0.2010 o          1 CNW      -0.630100
      4 CBF          2.9880    -0.1530    -0.0510 cc         1 CNW      -0.346400
      5 CAQ          2.0730    -1.1680     0.1630 cd         1 CNW       0.029800
      6 CBG          2.4950     1.2260    -0.3110 c          1 CNW       0.698300
      7 OAE          3.2260     2.1860    -0.5120 o          1 CNW      -0.517000
      8 OBB          1.1360     1.4040    -0.3220 os         1 CNW      -0.338200
      9 CBI          0.2170     0.4130    -0.1110 ca         1 CNW       0.240100
     10 CAP         -1.1450     0.7240    -0.1470 ca         1 CNW      -0.254000
     11 CBH          0.6430    -0.8920     0.1350 ca         1 CNW      -0.247800
     12 CAN         -0.3060    -1.9050     0.3480 ca         1 CNW       0.013000
     13 CAM         -1.6740    -1.5910     0.3110 ca         1 CNW      -0.228000
     14 CBE         -2.1100    -0.2750     0.0640 ca         1 CNW       0.416000
     15 NBP         -3.4950     0.0380     0.0270 nh         1 CNW      -0.814400
     16 CAS         -4.4950    -0.9450    -0.4570 c3         1 CNW       0.221800
     17 CAB         -5.2830    -1.6360     0.6720 c3         1 CNW      -0.116600
     18 CAR         -4.0010     1.3590     0.4720 c3         1 CNW       0.221800
     19 CAA         -4.3590     2.3090    -0.6860 c3         1 CNW      -0.116600
     20 HAX1         6.3060     0.2810    -0.1940 hn         1 CNW       0.329500
     21 HAX2         4.9960     1.4350    -0.3960 hn         1 CNW       0.329500
     22 HAQ          2.4150    -2.1850     0.3550 ha         1 CNW       0.215000
     23 HAP         -1.4410     1.7450    -0.3510 ha         1 CNW       0.140000
     24 HAN          0.0100    -2.9280     0.5440 ha         1 CNW       0.120000
     25 HAM         -2.3930    -2.3830     0.4880 ha         1 CNW       0.122000
     26 HAS1        -5.2110    -0.4480    -1.1260 h1         1 CNW       0.052450
     27 HAS2        -4.0020    -1.7150    -1.0650 h1         1 CNW       0.052450
     28 HAR1        -4.8930     1.2230     1.0980 h1         1 CNW       0.052450
     29 HAR2        -3.2570     1.8500     1.1140 h1         1 CNW       0.052450
     30 HAB1        -4.6070    -2.1500     1.3650 hc         1 CNW       0.045200
     31 HAB2        -5.8720    -0.9070     1.2410 hc         1 CNW       0.045200
     32 HAB3        -5.9730    -2.3770     0.2520 hc         1 CNW       0.045200
     33 HAA1        -4.6850     3.2780    -0.2920 hc         1 CNW       0.045200
     34 HAA2        -3.4940     2.4770    -1.3370 hc         1 CNW       0.045200
     35 HAA3        -5.1730     1.8970    -1.2930 hc         1 CNW       0.045200
@<TRIPOS>BOND
     1     1     2 1   
     2     1    20 1   
     3     1    21 1   
     4     2     3 2   
     5     2     4 1   
     6     4     5 2   
     7     4     6 1   
     8     5    11 1   
     9     5    22 1   
    10     6     7 2   
    11     6     8 1   
    12     8     9 1   
    13     9    10 ar  
    14     9    11 ar  
    15    10    14 ar  
    16    10    23 1   
    17    11    12 ar  
    18    12    13 ar  
    19    12    24 1   
    20    13    14 ar  
    21    13    25 1   
    22    14    15 1   
    23    15    16 1   
    24    15    18 1   
    25    16    17 1   
    26    16    26 1   
    27    16    27 1   
    28    17    30 1   
    29    17    31 1   
    30    17    32 1   
    31    18    19 1   
    32    18    28 1   
    33    18    29 1   
    34    19    33 1   
    35    19    34 1   
    36    19    35 1   
@<TRIPOS>SUBSTRUCTURE
     1 CNW         1 TEMP              0 ****  ****    0 ROOT
