@<TRIPOS>MOLECULE
CNW
   35    36     1     0     0
SMALL
bcc


@<TRIPOS>ATOM
      1 NAX          5.1770     0.5330     0.0030 nt         1 CNW      -0.671000
      2 CBC          4.3090    -0.4870    -0.0610 c          1 CNW       0.701300
      3 OAD          4.6640    -1.6540    -0.1240 o          1 CNW      -0.630100
      4 CBF          2.8570    -0.1400    -0.0380 cc         1 CNW      -0.346400
      5 CAQ          1.9530    -1.1590    -0.0950 cd         1 CNW       0.079800
      6 CBG          2.3730     1.2240     0.0430 c          1 CNW       0.773800
      7 OAE          3.0370     2.2320     0.0960 o          1 CNW      -0.592500
      8 OBB          1.0240     1.4010     0.0670 os         1 CNW      -0.338200
      9 CBI          0.1230     0.3990     0.0140 ca         1 CNW       0.240100
     10 CAP         -1.2100     0.7430     0.0390 ca         1 CNW      -0.272000
     11 CBH          0.5630    -0.9260    -0.0720 ca         1 CNW      -0.247800
     12 CAN         -0.4230    -1.9240    -0.1300 ca         1 CNW      -0.005000
     13 CAM         -1.7550    -1.6150    -0.1020 ca         1 CNW      -0.246000
     14 CBE         -2.1960    -0.2630    -0.0180 ca         1 CNW       0.277600
     15 NBP         -3.5130     0.0450     0.0040 nh         1 CNW      -0.676000
     16 CAS         -4.5500    -0.9600    -0.1480 c3         1 CNW       0.221800
     17 CAB         -4.9630    -1.5960     1.1710 c3         1 CNW      -0.116600
     18 CAR         -3.9770     1.4060     0.2150 c3         1 CNW       0.221800
     19 CAA         -4.0760     2.2150    -1.0700 c3         1 CNW      -0.116600
     20 HAX1         6.1640     0.3410     0.0060 hn         1 CNW       0.329500
     21 HAX2         4.8620     1.4890     0.0640 hn         1 CNW       0.329500
     22 HAQ          2.3170    -2.1780    -0.1590 ha         1 CNW       0.165000
     23 HAP         -1.4650     1.7910     0.0870 ha         1 CNW       0.158000
     24 HAN         -0.1190    -2.9620    -0.1880 ha         1 CNW       0.138000
     25 HAM         -2.4660    -2.4260    -0.1270 ha         1 CNW       0.140000
     26 HAS1        -5.4100    -0.4730    -0.6100 h1         1 CNW       0.052450
     27 HAS2        -4.2330    -1.7210    -0.8620 h1         1 CNW       0.052450
     28 HAR1        -4.9600     1.3450     0.6860 h1         1 CNW       0.052450
     29 HAR2        -3.3380     1.9060     0.9430 h1         1 CNW       0.052450
     30 HAB1        -4.1220    -2.0880     1.6590 hc         1 CNW       0.045200
     31 HAB2        -5.3590    -0.8500     1.8600 hc         1 CNW       0.045200
     32 HAB3        -5.7400    -2.3420     1.0050 hc         1 CNW       0.045200
     33 HAA1        -4.4440     3.2190    -0.8550 hc         1 CNW       0.045200
     34 HAA2        -3.1080     2.3110    -1.5620 hc         1 CNW       0.045200
     35 HAA3        -4.7660     1.7500    -1.7740 hc         1 CNW       0.045200
@<TRIPOS>BOND
     1     1     2 1   
     2     1    20 1   
     3     1    21 1   
     4     2     3 2   
     5     2     4 1   
     6     4     5 2   
     7     4     6 1   
     8     5    11 1   
     9     5    22 1   
    10     6     7 2   
    11     6     8 1   
    12     8     9 1   
    13     9    10 ar  
    14     9    11 ar  
    15    10    14 ar  
    16    10    23 1   
    17    11    12 ar  
    18    12    13 ar  
    19    12    24 1   
    20    13    14 ar  
    21    13    25 1   
    22    14    15 1   
    23    15    16 1   
    24    15    18 1   
    25    16    17 1   
    26    16    26 1   
    27    16    27 1   
    28    17    30 1   
    29    17    31 1   
    30    17    32 1   
    31    18    19 1   
    32    18    28 1   
    33    18    29 1   
    34    19    33 1   
    35    19    34 1   
    36    19    35 1   
@<TRIPOS>SUBSTRUCTURE
     1 CNW         1 TEMP              0 ****  ****    0 ROOT
