@<TRIPOS>MOLECULE
CNX
   21    20     1     0     0
SMALL
bcc


@<TRIPOS>ATOM
      1 N1          -4.2940     0.5900    -0.0450 n1         1 CNX      -0.375800
      2 C1          -3.3030     0.0050    -0.0260 c1         1 CNX       0.209700
      3 C2          -2.0410    -0.7170    -0.0090 c3         1 CNX      -0.019300
      4 C3          -0.8330     0.2240     0.0040 c3         1 CNX      -0.071400
      5 C4           0.4750    -0.5570     0.0160 c3         1 CNX      -0.076400
      6 C5           1.6970     0.3520     0.0330 c3         1 CNX      -0.076400
      7 C6           3.0140    -0.4140     0.0350 c3         1 CNX      -0.075400
      8 C7           4.2270     0.5050     0.0560 c3         1 CNX      -0.089100
      9 H2          -2.0350    -1.3650     0.8700 hc         1 CNX       0.069200
     10 H2A         -2.0140    -1.3680    -0.8860 hc         1 CNX       0.069200
     11 H3          -0.8700     0.8740    -0.8730 hc         1 CNX       0.050700
     12 H3A         -0.8880     0.8720     0.8820 hc         1 CNX       0.050700
     13 H4           0.4980    -1.2150     0.8910 hc         1 CNX       0.039700
     14 H4A          0.5170    -1.2100    -0.8620 hc         1 CNX       0.039700
     15 H5           1.6670     1.0180    -0.8370 hc         1 CNX       0.039700
     16 H5A          1.6540     1.0020     0.9140 hc         1 CNX       0.039700
     17 H6           3.0430    -1.0820     0.9020 hc         1 CNX       0.036700
     18 H6A          3.0570    -1.0610    -0.8470 hc         1 CNX       0.036700
     19 H7           4.2370     1.1630    -0.8150 hc         1 CNX       0.032700
     20 H7A          4.2250     1.1360     0.9470 hc         1 CNX       0.032700
     21 H7B          5.1600    -0.0590     0.0540 hc         1 CNX       0.032700
@<TRIPOS>BOND
     1     1     2 3   
     2     2     3 1   
     3     3     4 1   
     4     3     9 1   
     5     3    10 1   
     6     4     5 1   
     7     4    11 1   
     8     4    12 1   
     9     5     6 1   
    10     5    13 1   
    11     5    14 1   
    12     6     7 1   
    13     6    15 1   
    14     6    16 1   
    15     7     8 1   
    16     7    17 1   
    17     7    18 1   
    18     8    19 1   
    19     8    20 1   
    20     8    21 1   
@<TRIPOS>SUBSTRUCTURE
     1 CNX         1 TEMP              0 ****  ****    0 ROOT
