@<TRIPOS>MOLECULE
CNX
   21    20     1     0     0
SMALL
No Charge or Current Charge


@<TRIPOS>ATOM
      1 N1          -4.3640     0.6160    -0.0300 n1         1 CNX      -0.465000
      2 C1          -3.3690     0.0090    -0.0220 c1         1 CNX       0.298900
      3 C2          -2.0980    -0.7250    -0.0140 c3         1 CNX      -0.019300
      4 C3          -0.8620     0.2060     0.0040 c3         1 CNX      -0.071400
      5 C4           0.4760    -0.5660     0.0130 c3         1 CNX      -0.076400
      6 C5           1.7100     0.3630     0.0310 c3         1 CNX      -0.076400
      7 C6           3.0470    -0.4090     0.0400 c3         1 CNX      -0.075400
      8 C7           4.2780     0.5170     0.0570 c3         1 CNX      -0.089100
      9 H2          -2.0810    -1.3800     0.8650 hc         1 CNX       0.069200
     10 H2A         -2.0630    -1.3710    -0.8990 hc         1 CNX       0.069200
     11 H3          -0.8910     0.8630    -0.8750 hc         1 CNX       0.050700
     12 H3A         -0.9090     0.8540     0.8890 hc         1 CNX       0.050700
     13 H4           0.5070    -1.2230     0.8920 hc         1 CNX       0.039700
     14 H4A          0.5250    -1.2130    -0.8720 hc         1 CNX       0.039700
     15 H5           1.6790     1.0190    -0.8480 hc         1 CNX       0.039700
     16 H5A          1.6610     1.0100     0.9160 hc         1 CNX       0.039700
     17 H6           3.0820    -1.0650     0.9180 hc         1 CNX       0.036700
     18 H6A          3.1000    -1.0560    -0.8450 hc         1 CNX       0.036700
     19 H7           4.2910     1.1630    -0.8290 hc         1 CNX       0.032700
     20 H7A          4.2730     1.1540     0.9500 hc         1 CNX       0.032700
     21 H7B          5.2020    -0.0740     0.0630 hc         1 CNX       0.032700
@<TRIPOS>BOND
     1     1     2 3   
     2     2     3 1   
     3     3     4 1   
     4     3     9 1   
     5     3    10 1   
     6     4     5 1   
     7     4    11 1   
     8     4    12 1   
     9     5     6 1   
    10     5    13 1   
    11     5    14 1   
    12     6     7 1   
    13     6    15 1   
    14     6    16 1   
    15     7     8 1   
    16     7    17 1   
    17     7    18 1   
    18     8    19 1   
    19     8    20 1   
    20     8    21 1   
@<TRIPOS>SUBSTRUCTURE
     1 CNX         1 TEMP              0 ****  ****    0 ROOT
