@<TRIPOS>MOLECULE
CNY
   85    89     1     0     0
SMALL
bcc


@<TRIPOS>ATOM
      1 C11          1.2320    -0.7990     0.1030 c6         1 CNY       0.303900
      2 O11          2.4270    -0.2760     0.6030 os         1 CNY      -0.440600
      3 C21          0.5200    -1.5490     1.2450 c6         1 CNY       0.193500
      4 N21          0.5350    -0.8260     2.4940 n7         1 CNY      -0.852200
      5 C31          1.1200    -2.9450     1.4500 c6         1 CNY       0.153100
      6 O31          0.2580    -3.6510     2.3060 oh         1 CNY      -0.578800
      7 C41          1.3230    -3.6830     0.1300 c6         1 CNY       0.076100
      8 O41          1.9620    -4.9040     0.4320 oh         1 CNY      -0.602800
      9 C51          2.1590    -2.7990    -0.7910 c6         1 CNY       0.111100
     10 O51          1.4390    -1.6030    -1.0190 os         1 CNY      -0.402600
     11 C61          2.4910    -3.4130    -2.1360 c3         1 CNY       0.163800
     12 N61          3.2430    -2.4760    -2.9580 n8         1 CNY      -0.881800
     13 C12          4.6720     3.2090    -0.2150 c6         1 CNY       0.116500
     14 N12          5.2300     4.3850    -0.8650 n8         1 CNY      -0.903800
     15 C22          5.1700     1.8660    -0.7310 c6         1 CNY      -0.113400
     16 C32          4.5140     0.7090     0.0130 c6         1 CNY       0.171500
     17 N32          4.9900    -0.5570    -0.5250 n8         1 CNY      -0.886800
     18 C42          2.9960     0.8000    -0.1210 c6         1 CNY       0.149100
     19 C52          2.4780     2.1470     0.4040 c6         1 CNY       0.139100
     20 O52          1.0770     2.1890     0.1940 os         1 CNY      -0.439600
     21 C62          3.1520     3.2880    -0.3470 c6         1 CNY       0.133100
     22 O62          2.6850     4.5200     0.1380 oh         1 CNY      -0.602800
     23 C13          0.2620     2.7790     1.1610 c5         1 CNY       0.306900
     24 C23         -1.1710     2.7310     0.6140 c5         1 CNY       0.089100
     25 O23         -2.0110     3.6430     1.2640 oh         1 CNY      -0.571800
     26 C33         -1.5640     1.3200     1.0580 c5         1 CNY       0.127100
     27 O33         -2.9370     1.0650     1.1520 os         1 CNY      -0.378600
     28 C43         -0.9430     1.2470     2.4480 c5         1 CNY       0.101100
     29 O43          0.2330     2.0440     2.3610 os         1 CNY      -0.428600
     30 C53         -0.6260    -0.1450     2.9960 c3         1 CNY       0.198800
     31 C14         -3.5660     0.6910    -0.0240 c6         1 CNY       0.356900
     32 C24         -5.0740     0.7210     0.2130 c6         1 CNY       0.154500
     33 N24         -5.4260    -0.0580     1.3830 n8         1 CNY      -0.868800
     34 C34         -5.7860     0.1580    -1.0210 c6         1 CNY       0.110100
     35 O34         -5.6940     1.1430    -2.0260 oh         1 CNY      -0.598800
     36 C44         -5.1730    -1.1660    -1.5160 c6         1 CNY       0.098100
     37 O44         -5.4900    -2.2570    -0.6930 oh         1 CNY      -0.561800
     38 C54         -3.6590    -1.0330    -1.6100 c6         1 CNY       0.169100
     39 O54         -3.1220    -0.5930    -0.3750 os         1 CNY      -0.425600
     40 C64         -2.9610    -2.3220    -2.0030 c3         1 CNY       0.157800
     41 N64         -1.5750    -2.0670    -2.3660 n8         1 CNY      -0.890800
     42 H11          0.5950     0.0030    -0.2660 h2         1 CNY       0.094700
     43 H21         -0.5220    -1.6880     0.9250 h1         1 CNY       0.081700
     44 H1           1.3660    -0.2600     2.5830 hn         1 CNY       0.397800
     45 H31          2.1140    -2.8220     1.9110 h1         1 CNY       0.049700
     46 H2           0.6380    -4.5250     2.4490 ho         1 CNY       0.410000
     47 H41          0.3430    -3.8570    -0.3410 h1         1 CNY       0.048700
     48 H3           1.7700    -5.5410    -0.2620 ho         1 CNY       0.409000
     49 H51          3.1100    -2.5820    -0.2860 h1         1 CNY       0.050700
     50 H611         3.0270    -4.3500    -1.9400 h1         1 CNY       0.029700
     51 H612         1.5630    -3.6890    -2.6520 h1         1 CNY       0.029700
     52 H11A         3.9550    -2.0160    -2.3980 hn         1 CNY       0.346800
     53 H12A         3.7310    -2.9830    -3.6840 hn         1 CNY       0.346800
     54 H121         6.1960     4.5140    -0.5930 hn         1 CNY       0.350800
     55 H122         5.2270     4.2660    -1.8710 hn         1 CNY       0.350800
     56 H221         6.2550     1.8060    -0.6130 hc         1 CNY       0.053200
     57 H222         4.9620     1.7760    -1.8040 hc         1 CNY       0.053200
     58 H32          4.7600     0.8200     1.0820 h1         1 CNY       0.028700
     59 H321         6.0040    -0.5570    -0.5120 hn         1 CNY       0.344300
     60 H322         4.7160    -1.3090     0.0930 hn         1 CNY       0.344300
     61 H42          2.7470     0.7070    -1.1880 h1         1 CNY       0.081700
     62 H52          2.7160     2.2250     1.4740 h1         1 CNY       0.068700
     63 H62          2.9030     3.1760    -1.4180 h1         1 CNY       0.043700
     64 H4           3.3600     5.1610    -0.1350 ho         1 CNY       0.433000
     65 H13          0.6010     3.7930     1.3960 h2         1 CNY       0.087700
     66 H23         -1.1850     2.8630    -0.4740 h1         1 CNY       0.068700
     67 H5          -1.7620     4.5330     0.9950 ho         1 CNY       0.407000
     68 H33         -1.0890     0.6010     0.3860 h1         1 CNY       0.071700
     69 H43         -1.6450     1.7140     3.1520 h1         1 CNY       0.074700
     70 H531        -0.5090    -0.0470     4.0800 h1         1 CNY       0.066700
     71 H532        -1.5110    -0.7710     2.8530 h1         1 CNY       0.066700
     72 H14         -3.3240     1.3950    -0.8400 h2         1 CNY       0.038700
     73 H24         -5.3640     1.7810     0.2980 h1         1 CNY       0.047700
     74 H241        -5.0060     0.3550     2.2050 hn         1 CNY       0.346800
     75 H242        -6.4260    -0.0030     1.5270 hn         1 CNY       0.346800
     76 H34         -6.8420    -0.0230    -0.7580 h1         1 CNY       0.032700
     77 H6          -6.1490     0.8270    -2.8130 ho         1 CNY       0.409000
     78 H44         -5.5480    -1.3340    -2.5400 h1         1 CNY       0.022700
     79 H7          -6.4230    -2.2120    -0.4640 ho         1 CNY       0.402000
     80 H54         -3.4510    -0.2870    -2.3920 h1         1 CNY       0.055700
     81 H641        -3.4750    -2.7220    -2.8800 h1         1 CNY       0.045200
     82 H642        -3.0840    -3.0610    -1.2010 h1         1 CNY       0.045200
     83 H21A        -1.0550    -1.7620    -1.5550 hn         1 CNY       0.345300
     84 H22         -1.1370    -2.9340    -2.6510 hn         1 CNY       0.345300
     85 H12          4.9210     3.2900     0.8500 h1         1 CNY       0.068700
@<TRIPOS>BOND
     1     1     2 1   
     2     1     3 1   
     3     1    10 1   
     4     1    42 1   
     5     2    18 1   
     6     3     4 1   
     7     3     5 1   
     8     3    43 1   
     9     4    30 1   
    10     4    44 1   
    11     5     6 1   
    12     5     7 1   
    13     5    45 1   
    14     6    46 1   
    15     7     8 1   
    16     7     9 1   
    17     7    47 1   
    18     8    48 1   
    19     9    10 1   
    20     9    11 1   
    21     9    49 1   
    22    11    12 1   
    23    11    50 1   
    24    11    51 1   
    25    12    52 1   
    26    12    53 1   
    27    13    14 1   
    28    13    15 1   
    29    13    21 1   
    30    13    85 1   
    31    14    54 1   
    32    14    55 1   
    33    15    16 1   
    34    15    56 1   
    35    15    57 1   
    36    16    17 1   
    37    16    18 1   
    38    16    58 1   
    39    17    59 1   
    40    17    60 1   
    41    18    19 1   
    42    18    61 1   
    43    19    20 1   
    44    19    21 1   
    45    19    62 1   
    46    20    23 1   
    47    21    22 1   
    48    21    63 1   
    49    22    64 1   
    50    23    24 1   
    51    23    29 1   
    52    23    65 1   
    53    24    25 1   
    54    24    26 1   
    55    24    66 1   
    56    25    67 1   
    57    26    27 1   
    58    26    28 1   
    59    26    68 1   
    60    27    31 1   
    61    28    29 1   
    62    28    30 1   
    63    28    69 1   
    64    30    70 1   
    65    30    71 1   
    66    31    32 1   
    67    31    39 1   
    68    31    72 1   
    69    32    33 1   
    70    32    34 1   
    71    32    73 1   
    72    33    74 1   
    73    33    75 1   
    74    34    35 1   
    75    34    36 1   
    76    34    76 1   
    77    35    77 1   
    78    36    37 1   
    79    36    38 1   
    80    36    78 1   
    81    37    79 1   
    82    38    39 1   
    83    38    40 1   
    84    38    80 1   
    85    40    41 1   
    86    40    81 1   
    87    40    82 1   
    88    41    83 1   
    89    41    84 1   
@<TRIPOS>SUBSTRUCTURE
     1 CNY         1 TEMP              0 ****  ****    0 ROOT
