@<TRIPOS>MOLECULE
CNY
   85    89     1     0     0
SMALL
No Charge or Current Charge


@<TRIPOS>ATOM
      1 C11          1.5450    -1.1970     0.4220 c6         1 CNY       0.350300
      2 O11          2.7740    -0.4960     0.7440 os         1 CNY      -0.487000
      3 C21          0.9160    -1.8800     1.6900 c6         1 CNY       0.193500
      4 N21          0.6850    -0.9100     2.8200 n7         1 CNY      -0.907400
      5 C31          1.8260    -3.0810     2.1280 c6         1 CNY       0.176300
      6 O31          1.2510    -3.8440     3.2080 oh         1 CNY      -0.641000
      7 C41          2.0980    -4.0460     0.9360 c6         1 CNY       0.099300
      8 O41          2.9610    -5.1240     1.3690 oh         1 CNY      -0.725000
      9 C51          2.7080    -3.2400    -0.2520 c6         1 CNY       0.134300
     10 O51          1.8080    -2.1640    -0.6180 os         1 CNY      -0.449000
     11 C61          2.9500    -4.1260    -1.5250 c3         1 CNY       0.163800
     12 N61          3.5000    -3.4170    -2.7100 n8         1 CNY      -0.992200
     13 C12          4.2920     3.3580    -0.5130 c6         1 CNY       0.116500
     14 N12          4.6520     4.5770    -1.2840 n8         1 CNY      -1.014200
     15 C22          5.0590     2.1020    -0.9770 c6         1 CNY      -0.113400
     16 C32          4.6500     0.8840    -0.1050 c6         1 CNY       0.171500
     17 N32          5.4020    -0.3170    -0.5360 n8         1 CNY      -0.997200
     18 C42          3.0970     0.6390    -0.1120 c6         1 CNY       0.172300
     19 C52          2.3410     1.9410     0.3320 c6         1 CNY       0.162300
     20 O52          0.9090     1.7350     0.3310 os         1 CNY      -0.486000
     21 C62          2.7630     3.1240    -0.5990 c6         1 CNY       0.156300
     22 O62          2.1600     4.3880    -0.3080 oh         1 CNY      -0.725000
     23 C13          0.1290     2.5310     1.2470 c5         1 CNY       0.353300
     24 C23         -1.3530     2.4760     0.7270 c5         1 CNY       0.112300
     25 O23         -2.2120     3.4430     1.3830 oh         1 CNY      -0.694000
     26 C33         -1.6530     0.9860     1.1280 c5         1 CNY       0.150300
     27 O33         -3.0860     0.7490     1.1940 os         1 CNY      -0.425000
     28 C43         -1.0540     0.9490     2.5600 c5         1 CNY       0.124300
     29 O43          0.1100     1.8260     2.5140 os         1 CNY      -0.475000
     30 C53         -0.6960    -0.4540     3.1330 c3         1 CNY       0.198800
     31 C14         -3.8220     0.8540    -0.0420 c6         1 CNY       0.403300
     32 C24         -5.3680     0.7150     0.2390 c6         1 CNY       0.154500
     33 N24         -5.7120    -0.5220     1.0340 n8         1 CNY      -0.979200
     34 C34         -6.1390     0.7420    -1.1240 c6         1 CNY       0.133300
     35 O34         -6.0260     2.0350    -1.7470 oh         1 CNY      -0.661000
     36 C44         -5.5790    -0.3870    -2.0510 c6         1 CNY       0.121300
     37 O44         -5.8570    -1.6540    -1.4290 oh         1 CNY      -0.684000
     38 C54         -4.0360    -0.1700    -2.2240 c6         1 CNY       0.192300
     39 O54         -3.3770    -0.1990    -0.9290 os         1 CNY      -0.472000
     40 C64         -3.3760    -1.2600    -3.1340 c3         1 CNY       0.157800
     41 N64         -1.9270    -1.0540    -3.4050 n8         1 CNY      -1.001200
     42 H11          0.7980    -0.4930     0.0370 h2         1 CNY       0.094700
     43 H21         -0.0500    -2.3080     1.3830 h1         1 CNY       0.081700
     44 H1           1.2610    -0.0690     2.6660 hn         1 CNY       0.453000
     45 H31          2.7940    -2.6670     2.4510 h1         1 CNY       0.049700
     46 H2           1.7600    -4.6850     3.2020 ho         1 CNY       0.449000
     47 H41          1.1310    -4.4570     0.6040 h1         1 CNY       0.048700
     48 H3           2.8330    -5.8810     0.7490 ho         1 CNY       0.508000
     49 H51          3.6730    -2.8120     0.0560 h1         1 CNY       0.050700
     50 H611         3.6580    -4.9230    -1.2600 h1         1 CNY       0.029700
     51 H612         2.0030    -4.6020    -1.8150 h1         1 CNY       0.029700
     52 H11A         4.3820    -2.9610    -2.4500 hn         1 CNY       0.402000
     53 H12A         3.7800    -4.1080    -3.4170 hn         1 CNY       0.402000
     54 H121         5.6330     4.8190    -1.0870 hn         1 CNY       0.406000
     55 H122         4.6760     4.3440    -2.2860 hn         1 CNY       0.406000
     56 H221         6.1410     2.2740    -0.8960 hc         1 CNY       0.053200
     57 H222         4.8460     1.8960    -2.0360 hc         1 CNY       0.053200
     58 H32          4.9480     1.0820     0.9360 h1         1 CNY       0.028700
     59 H321         6.3500    -0.2700    -0.1480 hn         1 CNY       0.399500
     60 H322         4.9810    -1.1190    -0.0540 hn         1 CNY       0.399500
     61 H42          2.8020     0.3950    -1.1440 h1         1 CNY       0.081700
     62 H52          2.6570     2.1690     1.3610 h1         1 CNY       0.068700
     63 H62          2.5180     2.8410    -1.6340 h1         1 CNY       0.043700
     64 H4           2.8890     4.9960    -0.6100 ho         1 CNY       0.532000
     65 H13          0.5150     3.5530     1.3420 h2         1 CNY       0.087700
     66 H23         -1.3870     2.6050    -0.3640 h1         1 CNY       0.068700
     67 H5          -1.9380     4.3400     1.0800 ho         1 CNY       0.506000
     68 H33         -1.1790     0.2590     0.4560 h1         1 CNY       0.071700
     69 H43         -1.7810     1.4030     3.2480 h1         1 CNY       0.074700
     70 H531        -0.7920    -0.3680     4.2240 h1         1 CNY       0.066700
     71 H532        -1.4530    -1.1870     2.8190 h1         1 CNY       0.066700
     72 H14         -3.6290     1.8320    -0.5060 h2         1 CNY       0.038700
     73 H24         -5.6740     1.5810     0.8440 h1         1 CNY       0.047700
     74 H241        -4.9570    -0.6560     1.7210 hn         1 CNY       0.402000
     75 H242        -6.5250    -0.3130     1.6290 hn         1 CNY       0.402000
     76 H34         -7.2020     0.5370    -0.9240 h1         1 CNY       0.032700
     77 H6          -6.7650     2.1110    -2.3920 ho         1 CNY       0.448000
     78 H44         -6.0680    -0.3330    -3.0340 h1         1 CNY       0.022700
     79 H7          -5.7750    -1.4460    -0.4520 ho         1 CNY       0.501000
     80 H54         -3.8560     0.8090    -2.6930 h1         1 CNY       0.055700
     81 H641        -3.9090    -1.2880    -4.0940 h1         1 CNY       0.045200
     82 H642        -3.5020    -2.2400    -2.6510 h1         1 CNY       0.045200
     83 H21A        -1.4370    -1.0300    -2.5040 hn         1 CNY       0.400500
     84 H22         -1.5490    -1.8910    -3.8660 hn         1 CNY       0.400500
     85 H12          4.5490     3.5550     0.5420 h1         1 CNY       0.068700
@<TRIPOS>BOND
     1     1     2 1   
     2     1     3 1   
     3     1    10 1   
     4     1    42 1   
     5     2    18 1   
     6     3     4 1   
     7     3     5 1   
     8     3    43 1   
     9     4    30 1   
    10     4    44 1   
    11     5     6 1   
    12     5     7 1   
    13     5    45 1   
    14     6    46 1   
    15     7     8 1   
    16     7     9 1   
    17     7    47 1   
    18     8    48 1   
    19     9    10 1   
    20     9    11 1   
    21     9    49 1   
    22    11    12 1   
    23    11    50 1   
    24    11    51 1   
    25    12    52 1   
    26    12    53 1   
    27    13    14 1   
    28    13    15 1   
    29    13    21 1   
    30    13    85 1   
    31    14    54 1   
    32    14    55 1   
    33    15    16 1   
    34    15    56 1   
    35    15    57 1   
    36    16    17 1   
    37    16    18 1   
    38    16    58 1   
    39    17    59 1   
    40    17    60 1   
    41    18    19 1   
    42    18    61 1   
    43    19    20 1   
    44    19    21 1   
    45    19    62 1   
    46    20    23 1   
    47    21    22 1   
    48    21    63 1   
    49    22    64 1   
    50    23    24 1   
    51    23    29 1   
    52    23    65 1   
    53    24    25 1   
    54    24    26 1   
    55    24    66 1   
    56    25    67 1   
    57    26    27 1   
    58    26    28 1   
    59    26    68 1   
    60    27    31 1   
    61    28    29 1   
    62    28    30 1   
    63    28    69 1   
    64    30    70 1   
    65    30    71 1   
    66    31    32 1   
    67    31    39 1   
    68    31    72 1   
    69    32    33 1   
    70    32    34 1   
    71    32    73 1   
    72    33    74 1   
    73    33    75 1   
    74    34    35 1   
    75    34    36 1   
    76    34    76 1   
    77    35    77 1   
    78    36    37 1   
    79    36    38 1   
    80    36    78 1   
    81    37    79 1   
    82    38    39 1   
    83    38    40 1   
    84    38    80 1   
    85    40    41 1   
    86    40    81 1   
    87    40    82 1   
    88    41    83 1   
    89    41    84 1   
@<TRIPOS>SUBSTRUCTURE
     1 CNY         1 TEMP              0 ****  ****    0 ROOT
