@<TRIPOS>MOLECULE
CNZ
   61    62     1     0     0
SMALL
No Charge or Current Charge


@<TRIPOS>ATOM
      1 N1          -6.1340    -4.0310    -0.9440 nz         1 CNZ      -0.981000
      2 CA1         -4.6930    -3.6690    -1.3270 c3         1 CNZ      -0.062700
      3 C1          -3.7150    -4.8990    -1.3130 c          1 CNZ       0.718000
      4 O11         -3.8330    -5.7080    -0.4030 o          1 CNZ      -0.658500
      5 CB1         -4.1550    -2.5280    -0.4340 c3         1 CNZ      -0.078400
      6 CG1         -4.9710    -1.2160    -0.5430 c3         1 CNZ      -0.171400
      7 CD1         -4.3060    -0.0840     0.2490 c          1 CNZ       0.604100
      8 OE1         -4.3450    -0.0270     1.4690 o          1 CNZ      -0.573100
      9 O12         -2.9940    -5.0620    -2.2850 o          1 CNZ      -0.658500
     10 N2          -3.7000     0.8820    -0.5220 ns         1 CNZ      -0.487900
     11 CA2         -2.9320     2.0380     0.0020 c3         1 CNZ       0.040700
     12 C2          -3.3330     3.3420    -0.7450 c          1 CNZ       0.577100
     13 O2          -3.9460     3.3480    -1.8080 o          1 CNZ      -0.658100
     14 CB2         -1.4070     1.7910    -0.1230 c3         1 CNZ       0.035600
     15 SG2         -0.8600     0.3000     0.8330 ss         1 CNZ      -0.372000
     16 CZ4          8.4230    -1.7870     0.8750 ca         1 CNZ      -0.096000
     17 CE4          9.7980    -1.8960     0.6070 ca         1 CNZ      -0.112000
     18 CD4         10.3010    -1.5360    -0.6530 ca         1 CNZ      -0.107000
     19 CG4          9.4270    -1.0660    -1.6450 ca         1 CNZ      -0.112000
     20 CB4          8.0510    -0.9560    -1.3770 ca         1 CNZ      -0.096000
     21 CH4          7.5190    -1.3140    -0.1120 cp         1 CNZ      -0.039000
     22 CH5          6.0520    -1.1970     0.1740 cp         1 CNZ      -0.009000
     23 CB5          5.3910    -2.1260     1.0120 ca         1 CNZ      -0.116000
     24 CG5          4.0160    -2.0190     1.2800 ca         1 CNZ      -0.063000
     25 CD5          3.2500    -0.9730     0.7190 ca         1 CNZ      -0.168600
     26 CE5          3.9010    -0.0390    -0.1200 ca         1 CNZ      -0.063000
     27 CZ5          5.2770    -0.1530    -0.3850 ca         1 CNZ      -0.116000
     28 O5           1.2270    -1.7020     1.7550 o          1 CNZ      -0.498100
     29 N3          -2.9530     4.5140    -0.1240 ns         1 CNZ      -0.445900
     30 CA3         -3.2100     5.8760    -0.6500 c3         1 CNZ      -0.062000
     31 C3          -2.7940     6.9870     0.3540 c          1 CNZ       0.714000
     32 C13          0.9530     0.2790     0.3920 c3         1 CNZ      -0.065400
     33 O31         -1.9720     6.7160     1.2200 o          1 CNZ      -0.725000
     34 C14          1.7650    -0.8760     1.0230 c          1 CNZ       0.594700
     35 O32         -3.3390     8.0770     0.2600 o          1 CNZ      -0.725000
     36 H12N        -6.7870    -3.2340    -0.9710 hn         1 CNZ       0.494333
     37 H11N        -6.5450    -4.7500    -1.5620 hn         1 CNZ       0.494333
     38 H1          -6.2010    -4.4310     0.0060 hn         1 CNZ       0.494333
     39 HA1         -4.7040    -3.3140    -2.3620 hx         1 CNZ       0.077700
     40 HB11        -4.1250    -2.8610     0.6120 hc         1 CNZ       0.099200
     41 HB12        -3.1140    -2.3220    -0.7210 hc         1 CNZ       0.099200
     42 HG12        -5.0430    -0.9410    -1.6030 hc         1 CNZ       0.041200
     43 HG11        -5.9730    -1.3850    -0.1320 hc         1 CNZ       0.041200
     44 H2          -3.7750     0.7740    -1.5270 hn         1 CNZ       0.313500
     45 HA2         -3.1790     2.1880     1.0600 h1         1 CNZ       0.093700
     46 HB22        -1.1450     1.6530    -1.1800 h1         1 CNZ       0.075700
     47 HB21        -0.8570     2.6650     0.2510 h1         1 CNZ       0.075700
     48 HD4         11.3660    -1.6210    -0.8600 ha         1 CNZ       0.111000
     49 HG4          9.8130    -0.7890    -2.6240 ha         1 CNZ       0.112000
     50 HB4          7.3900    -0.6020    -2.1650 ha         1 CNZ       0.115500
     51 HB5          5.9470    -2.9510     1.4500 ha         1 CNZ       0.118000
     52 HG5          3.5500    -2.7590     1.9280 ha         1 CNZ       0.127000
     53 HE5          3.3590     0.7870    -0.5750 ha         1 CNZ       0.127000
     54 HZ5          5.7490     0.5900    -1.0230 ha         1 CNZ       0.118000
     55 H3          -2.4520     4.4360     0.7560 hn         1 CNZ       0.345500
     56 HA31        -2.6410     6.0170    -1.5780 h1         1 CNZ       0.037700
     57 HA32        -4.2800     5.9810    -0.8690 h1         1 CNZ       0.037700
     58 H132         1.0550     0.2010    -0.6970 h1         1 CNZ       0.080700
     59 H131         1.4100     1.2220     0.7150 h1         1 CNZ       0.080700
     60 HZ4          8.0570    -2.0580     1.8620 ha         1 CNZ       0.115500
     61 HE4         10.4750    -2.2570     1.3790 ha         1 CNZ       0.112000
@<TRIPOS>BOND
     1     1     2 1   
     2     1    36 1   
     3     1    37 1   
     4     1    38 1   
     5     2     3 1   
     6     2     5 1   
     7     2    39 1   
     8     3     4 1   
     9     3     9 1   
    10     5     6 1   
    11     5    40 1   
    12     5    41 1   
    13     6     7 1   
    14     6    42 1   
    15     6    43 1   
    16     7     8 2   
    17     7    10 1   
    18    10    11 1   
    19    10    44 1   
    20    11    12 1   
    21    11    14 1   
    22    11    45 1   
    23    12    13 2   
    24    12    29 1   
    25    14    15 1   
    26    14    46 1   
    27    14    47 1   
    28    15    32 1   
    29    16    17 ar  
    30    16    21 ar  
    31    16    60 1   
    32    17    18 ar  
    33    17    61 1   
    34    18    19 ar  
    35    18    48 1   
    36    19    20 ar  
    37    19    49 1   
    38    20    21 ar  
    39    20    50 1   
    40    21    22 1   
    41    22    23 ar  
    42    22    27 ar  
    43    23    24 ar  
    44    23    51 1   
    45    24    25 ar  
    46    24    52 1   
    47    25    26 ar  
    48    25    34 1   
    49    26    27 ar  
    50    26    53 1   
    51    27    54 1   
    52    28    34 2   
    53    29    30 1   
    54    29    55 1   
    55    30    31 1   
    56    30    56 1   
    57    30    57 1   
    58    31    33 1   
    59    31    35 1   
    60    32    34 1   
    61    32    58 1   
    62    32    59 1   
@<TRIPOS>SUBSTRUCTURE
     1 CNZ         1 TEMP              0 ****  ****    0 ROOT
