@<TRIPOS>MOLECULE
CNZ
   61    62     1     0     0
SMALL
abcg2


@<TRIPOS>ATOM
      1 N1          -6.7460    -3.2510    -2.2090 nz         1 CNZ      -0.981000
      2 CA1         -6.4580    -3.3940    -0.7530 c3         1 CNZ      -0.062700
      3 C1          -7.7330    -4.0000    -0.0990 c          1 CNZ       0.718000
      4 O11         -7.7660    -3.9940     1.1350 o          1 CNZ      -0.658500
      5 CB1         -6.0050    -2.0830    -0.1380 c3         1 CNZ      -0.078400
      6 CG1         -4.6950    -1.5760    -0.7240 c3         1 CNZ      -0.171400
      7 CD1         -4.2020    -0.3150    -0.0490 c          1 CNZ       0.604100
      8 OE1         -4.9270     0.4210     0.6020 o          1 CNZ      -0.573100
      9 O12         -8.5720    -4.4580    -0.9000 o          1 CNZ      -0.658500
     10 N2          -2.8940    -0.0510    -0.2230 ns         1 CNZ      -0.487900
     11 CA2         -2.3120     1.1750     0.2520 c3         1 CNZ       0.040700
     12 C2          -2.9320     2.3890    -0.4530 c          1 CNZ       0.577100
     13 O2          -3.2960     2.3290    -1.6190 o          1 CNZ      -0.658100
     14 CB2         -0.8120     1.1810    -0.0210 c3         1 CNZ       0.035600
     15 SG2         -0.0230    -0.2190     0.8280 ss         1 CNZ      -0.372000
     16 CZ4          9.1700    -1.0970     0.6220 ca         1 CNZ      -0.096000
     17 CE4         10.5270    -1.0530     0.3370 ca         1 CNZ      -0.112000
     18 CD4         10.9640    -0.6490    -0.9180 ca         1 CNZ      -0.107000
     19 CG4         10.0350    -0.2870    -1.8840 ca         1 CNZ      -0.112000
     20 CB4          8.6780    -0.3270    -1.5980 ca         1 CNZ      -0.096000
     21 CH4          8.2270    -0.7340    -0.3410 cp         1 CNZ      -0.039000
     22 CH5          6.7840    -0.7790    -0.0370 cp         1 CNZ      -0.009000
     23 CB5          6.2510    -1.7860     0.7720 ca         1 CNZ      -0.116000
     24 CG5          4.9000    -1.8290     1.0550 ca         1 CNZ      -0.063000
     25 CD5          4.0340    -0.8640     0.5380 ca         1 CNZ      -0.168600
     26 CE5          4.5610     0.1430    -0.2700 ca         1 CNZ      -0.063000
     27 CZ5          5.9150     0.1840    -0.5520 ca         1 CNZ      -0.116000
     28 O5           2.1470    -1.8260     1.5690 o          1 CNZ      -0.498100
     29 N3          -2.9750     3.4910     0.2910 ns         1 CNZ      -0.445900
     30 CA3         -3.4300     4.7730    -0.1820 c3         1 CNZ      -0.062000
     31 C3          -3.3270     5.8360     0.9310 c          1 CNZ       0.714000
     32 C13          1.6730     0.1100     0.2980 c3         1 CNZ      -0.065400
     33 O31         -2.9020     5.4570     2.0390 o          1 CNZ      -0.725000
     34 C14          2.5890    -0.9450     0.8650 c          1 CNZ       0.594700
     35 O32         -3.6860     6.9800     0.6050 o          1 CNZ      -0.725000
     36 H12N        -5.9680    -3.5010    -2.8150 hn         1 CNZ       0.494333
     37 H11N        -7.5450    -3.8820    -2.3840 hn         1 CNZ       0.494333
     38 H1          -7.0500    -2.3110    -2.4610 hn         1 CNZ       0.494333
     39 HA1         -5.6610    -4.1380    -0.6750 hx         1 CNZ       0.077700
     40 HB11        -6.7930    -1.3340    -0.2520 hc         1 CNZ       0.099200
     41 HB12        -5.8900    -2.2570     0.9310 hc         1 CNZ       0.099200
     42 HG12        -3.9270    -2.3520    -0.6630 hc         1 CNZ       0.041200
     43 HG11        -4.8010    -1.3430    -1.7900 hc         1 CNZ       0.041200
     44 H2          -2.3480    -0.6450    -0.8270 hn         1 CNZ       0.313500
     45 HA2         -2.4740     1.2620     1.3310 h1         1 CNZ       0.093700
     46 HB22        -0.6210     1.1170    -1.0950 h1         1 CNZ       0.075700
     47 HB21        -0.3850     2.1160     0.3430 h1         1 CNZ       0.075700
     48 HD4         12.0230    -0.6150    -1.1410 ha         1 CNZ       0.111000
     49 HG4         10.3660     0.0240    -2.8670 ha         1 CNZ       0.112000
     50 HB4          7.9650    -0.0600    -2.3680 ha         1 CNZ       0.115500
     51 HB5          6.8960    -2.5600     1.1700 ha         1 CNZ       0.118000
     52 HG5          4.5130    -2.6260     1.6760 ha         1 CNZ       0.127000
     53 HE5          3.9270     0.9140    -0.6870 ha         1 CNZ       0.127000
     54 HZ5          6.3000     0.9890    -1.1640 ha         1 CNZ       0.118000
     55 H3          -2.6910     3.4760     1.2610 hn         1 CNZ       0.345500
     56 HA31        -2.8410     5.1000    -1.0440 h1         1 CNZ       0.037700
     57 HA32        -4.4690     4.7140    -0.5220 h1         1 CNZ       0.037700
     58 H132         1.7350     0.1100    -0.7930 h1         1 CNZ       0.080700
     59 H131         1.9940     1.1000     0.6360 h1         1 CNZ       0.080700
     60 HZ4          8.8450    -1.3970     1.6100 ha         1 CNZ       0.115500
     61 HE4         11.2430    -1.3280     1.1000 ha         1 CNZ       0.112000
@<TRIPOS>BOND
     1     1     2 1   
     2     1    36 1   
     3     1    37 1   
     4     1    38 1   
     5     2     3 1   
     6     2     5 1   
     7     2    39 1   
     8     3     4 1   
     9     3     9 1   
    10     5     6 1   
    11     5    40 1   
    12     5    41 1   
    13     6     7 1   
    14     6    42 1   
    15     6    43 1   
    16     7     8 2   
    17     7    10 1   
    18    10    11 1   
    19    10    44 1   
    20    11    12 1   
    21    11    14 1   
    22    11    45 1   
    23    12    13 2   
    24    12    29 1   
    25    14    15 1   
    26    14    46 1   
    27    14    47 1   
    28    15    32 1   
    29    16    17 ar  
    30    16    21 ar  
    31    16    60 1   
    32    17    18 ar  
    33    17    61 1   
    34    18    19 ar  
    35    18    48 1   
    36    19    20 ar  
    37    19    49 1   
    38    20    21 ar  
    39    20    50 1   
    40    21    22 1   
    41    22    23 ar  
    42    22    27 ar  
    43    23    24 ar  
    44    23    51 1   
    45    24    25 ar  
    46    24    52 1   
    47    25    26 ar  
    48    25    34 1   
    49    26    27 ar  
    50    26    53 1   
    51    27    54 1   
    52    28    34 2   
    53    29    30 1   
    54    29    55 1   
    55    30    31 1   
    56    30    56 1   
    57    30    57 1   
    58    31    33 1   
    59    31    35 1   
    60    32    34 1   
    61    32    58 1   
    62    32    59 1   
@<TRIPOS>SUBSTRUCTURE
     1 CNZ         1 TEMP              0 ****  ****    0 ROOT
