@<TRIPOS>MOLECULE
CO0
   35    37     1     0     0
SMALL
No Charge or Current Charge


@<TRIPOS>ATOM
      1 C4           1.0030    -0.7520     1.2870 c          1 CO0       0.587600
      2 C7          -0.2390     1.0540     0.0330 cc         1 CO0      -0.052600
      3 C8          -1.5120     1.2430    -0.4660 cf         1 CO0      -0.099200
      4 C10         -3.9400     0.9380    -0.9430 ca         1 CO0      -0.086000
      5 C13         -3.8180    -1.7920    -0.3070 ca         1 CO0      -0.115000
      6 C15          0.8460     1.9620    -0.4610 c          1 CO0       0.571200
      7 C20          4.5080    -1.1290    -1.2360 ca         1 CO0      -0.063000
      8 O16          0.6280     3.0400    -0.9960 o          1 CO0      -0.527000
      9 N17          2.1470     1.5550    -0.3530 ns         1 CO0      -0.398100
     10 C18          2.6990     0.2680    -0.3610 ca         1 CO0       0.097600
     11 C3           2.1620    -0.8370     0.3300 ca         1 CO0      -0.167600
     12 C19          3.8700     0.1140    -1.1280 ca         1 CO0      -0.163000
     13 C1           3.9790    -2.2340    -0.5610 ca         1 CO0      -0.136000
     14 C2           2.8250    -2.0860     0.2220 ca         1 CO0      -0.040000
     15 N6          -0.0270     0.2150     1.1480 n          1 CO0      -0.332000
     16 C23         -1.0200     0.2640     2.2580 c3         1 CO0       0.090300
     17 O5           0.9720    -1.5330     2.2330 o          1 CO0      -0.549000
     18 C9          -2.7130     0.3790    -0.5290 ca         1 CO0      -0.073800
     19 C14         -2.6610    -0.9980    -0.2260 ca         1 CO0      -0.086000
     20 C12         -5.0390    -1.2210    -0.7020 ca         1 CO0      -0.095000
     21 C11         -5.0980     0.1450    -1.0230 ca         1 CO0      -0.115000
     22 H1          -1.5940     2.0820    -1.1590 ha         1 CO0       0.196000
     23 H3          -3.7670    -2.8530    -0.0710 ha         1 CO0       0.117000
     24 H4           5.4080    -1.2340    -1.8390 ha         1 CO0       0.119000
     25 H8           2.7990     2.2780    -0.6260 hn         1 CO0       0.321500
     26 H9           4.2880     0.9660    -1.6600 ha         1 CO0       0.119000
     27 H10          4.4680    -3.2030    -0.6340 ha         1 CO0       0.123000
     28 H11          2.4460    -2.9570     0.7550 ha         1 CO0       0.134000
     29 H14         -0.5000     0.4140     3.2130 h1         1 CO0       0.051033
     30 H12         -1.7220     1.0960     2.1200 h1         1 CO0       0.051033
     31 H13         -1.5850    -0.6750     2.3060 h1         1 CO0       0.051033
     32 H15         -1.7220    -1.4690     0.0520 ha         1 CO0       0.118500
     33 H17         -5.9340    -1.8360    -0.7650 ha         1 CO0       0.115000
     34 H16         -6.0400     0.5890    -1.3360 ha         1 CO0       0.117000
     35 H2          -4.0020     1.9950    -1.1930 ha         1 CO0       0.118500
@<TRIPOS>BOND
     1     1    11 1   
     2     1    15 1   
     3     1    17 2   
     4     2     3 2   
     5     2     6 1   
     6     2    15 1   
     7     3    18 1   
     8     3    22 1   
     9     4    18 ar  
    10     4    21 ar  
    11     4    35 1   
    12     5    19 ar  
    13     5    20 ar  
    14     5    23 1   
    15     6     8 2   
    16     6     9 1   
    17     7    12 ar  
    18     7    13 ar  
    19     7    24 1   
    20     9    10 1   
    21     9    25 1   
    22    10    11 ar  
    23    10    12 ar  
    24    11    14 ar  
    25    12    26 1   
    26    13    14 ar  
    27    13    27 1   
    28    14    28 1   
    29    15    16 1   
    30    16    29 1   
    31    16    30 1   
    32    16    31 1   
    33    18    19 ar  
    34    19    32 1   
    35    20    21 ar  
    36    20    33 1   
    37    21    34 1   
@<TRIPOS>SUBSTRUCTURE
     1 CO0         1 TEMP              0 ****  ****    0 ROOT
