@<TRIPOS>MOLECULE
CO0
   35    37     1     0     0
SMALL
bcc


@<TRIPOS>ATOM
      1 C4           0.9010    -0.6290     1.4260 c          1 CO0       0.730100
      2 C7          -0.1840     1.1330     0.1500 cc         1 CO0      -0.052600
      3 C8          -1.2510     1.1030    -0.6530 cf         1 CO0      -0.049200
      4 C10         -3.5930     0.6570    -1.2030 ca         1 CO0      -0.104000
      5 C13         -3.4800    -1.9160    -0.1890 ca         1 CO0      -0.133000
      6 C15          0.8770     2.1580    -0.0710 c          1 CO0       0.713700
      7 C20          3.9850    -1.1680    -1.4770 ca         1 CO0      -0.081000
      8 O16          0.6380     3.3370    -0.2370 o          1 CO0      -0.602500
      9 N17          2.1480     1.6700    -0.0570 ns         1 CO0      -0.465100
     10 C18          2.5090     0.3400    -0.3020 ca         1 CO0       0.097600
     11 C3           1.9020    -0.7500     0.3300 ca         1 CO0      -0.167600
     12 C19          3.5620     0.1160    -1.1910 ca         1 CO0      -0.181000
     13 C1           3.3600    -2.2580    -0.8830 ca         1 CO0      -0.154000
     14 C2           2.3400    -2.0400     0.0220 ca         1 CO0      -0.058000
     15 N6          -0.0280     0.3510     1.3210 n          1 CO0      -0.399000
     16 C23         -0.9770     0.5720     2.4030 c3         1 CO0       0.090300
     17 O5           0.9180    -1.4060     2.3670 o          1 CO0      -0.624500
     18 C9          -2.3970     0.1960    -0.6450 ca         1 CO0      -0.073800
     19 C14         -2.3540    -1.1110    -0.1480 ca         1 CO0      -0.104000
     20 C12         -4.6690    -1.4360    -0.7230 ca         1 CO0      -0.113000
     21 C11         -4.7220    -0.1460    -1.2340 ca         1 CO0      -0.133000
     22 H1          -1.2820     1.8670    -1.4220 ha         1 CO0       0.146000
     23 H3          -3.4280    -2.9250     0.1990 ha         1 CO0       0.135000
     24 H4           4.8020    -1.3150    -2.1710 ha         1 CO0       0.137000
     25 H8           2.8650     2.3580    -0.2490 hn         1 CO0       0.321500
     26 H9           4.0390     0.9620    -1.6680 ha         1 CO0       0.137000
     27 H10          3.6770    -3.2660    -1.1120 ha         1 CO0       0.141000
     28 H11          1.8740    -2.8820     0.5160 ha         1 CO0       0.152000
     29 H14         -0.5250     0.3020     3.3530 h1         1 CO0       0.051033
     30 H12         -1.2420     1.6260     2.4300 h1         1 CO0       0.051033
     31 H13         -1.8890    -0.0140     2.2730 h1         1 CO0       0.051033
     32 H15         -1.4360    -1.5190     0.2500 ha         1 CO0       0.136500
     33 H17         -5.5470    -2.0690    -0.7480 ha         1 CO0       0.133000
     34 H16         -5.6400     0.2340    -1.6630 ha         1 CO0       0.135000
     35 H2          -3.6380     1.6590    -1.6110 ha         1 CO0       0.136500
@<TRIPOS>BOND
     1     1    11 1   
     2     1    15 1   
     3     1    17 2   
     4     2     3 2   
     5     2     6 1   
     6     2    15 1   
     7     3    18 1   
     8     3    22 1   
     9     4    18 ar  
    10     4    21 ar  
    11     4    35 1   
    12     5    19 ar  
    13     5    20 ar  
    14     5    23 1   
    15     6     8 2   
    16     6     9 1   
    17     7    12 ar  
    18     7    13 ar  
    19     7    24 1   
    20     9    10 1   
    21     9    25 1   
    22    10    11 ar  
    23    10    12 ar  
    24    11    14 ar  
    25    12    26 1   
    26    13    14 ar  
    27    13    27 1   
    28    14    28 1   
    29    15    16 1   
    30    16    29 1   
    31    16    30 1   
    32    16    31 1   
    33    18    19 ar  
    34    19    32 1   
    35    20    21 ar  
    36    20    33 1   
    37    21    34 1   
@<TRIPOS>SUBSTRUCTURE
     1 CO0         1 TEMP              0 ****  ****    0 ROOT
