@<TRIPOS>MOLECULE
CO1
   73    77     1     0     0
SMALL
abcg2


@<TRIPOS>ATOM
      1 O24         -0.1320    -0.8580    -8.3470 oh         1 CO1      -0.660000
      2 C22         -0.1900    -0.9310    -6.9370 c6         1 CO1       0.172300
      3 C18         -0.9510     0.2460    -6.3340 c6         1 CO1      -0.074200
      4 C14         -0.9310     0.2120    -4.8280 c2         1 CO1      -0.108400
      5 C9          -2.0680     0.2780    -4.1380 c2         1 CO1      -0.216200
      6 C4          -2.1650     0.2890    -2.6490 c6         1 CO1      -0.037200
      7 C1          -0.8240     0.5320    -1.9660 c6         1 CO1      -0.041700
      8 C3           0.2820    -0.2650    -2.6710 c6         1 CO1      -0.046700
      9 C8           1.6000    -0.1890    -1.8920 c6         1 CO1      -0.071400
     10 C11          1.4710    -0.5690    -0.4150 c6         1 CO1      -0.061400
     11 C5           0.4110     0.2800     0.2910 c5         1 CO1      -0.037000
     12 C12          0.8460     1.7460     0.3780 c3         1 CO1      -0.078100
     13 C10         -0.0630    -0.2220     1.6780 c5         1 CO1      -0.053700
     14 C13         -1.4950     0.3670     1.8040 c5         1 CO1      -0.077400
     15 C6          -1.9630     0.7250     0.3810 c5         1 CO1      -0.072400
     16 C2          -0.8920     0.1070    -0.5080 c5         1 CO1      -0.065700
     17 C17          0.7940     0.0700     2.9180 c3         1 CO1      -0.046700
     18 C21          2.2420    -0.3890     2.7680 c3         1 CO1      -0.087100
     19 C20          0.1510    -0.5860     4.1480 c3         1 CO1      -0.075400
     20 C23          0.7420    -0.1610     5.4910 c3         1 CO1      -0.065400
     21 C25          0.0590    -0.8660     6.6290 cx         1 CO1       0.092300
     22 O27         -1.2200    -0.3890     7.0440 op         1 CO1      -0.443000
     23 C26         -0.1390    -0.3300     7.9760 cx         1 CO1       0.104000
     24 C28         -0.2490    -1.2930     9.1310 c3         1 CO1      -0.079100
     25 C29          0.3310     1.0480     8.3660 c3         1 CO1      -0.079100
     26 C7           0.4340     0.1030    -4.1700 c6         1 CO1       0.004200
     27 C16          1.1750     1.4370    -4.3560 c3         1 CO1      -0.079100
     28 C15          1.2170    -1.0280    -4.8720 c6         1 CO1      -0.067400
     29 C19          1.2260    -0.9500    -6.3950 c6         1 CO1      -0.072400
     30 H24         -1.0330    -0.8780    -8.6840 ho         1 CO1       0.441000
     31 H22         -0.6900    -1.8600    -6.6210 h1         1 CO1       0.030700
     32 H181        -1.9870     0.2480    -6.6850 hc         1 CO1       0.049700
     33 H182        -0.4920     1.1710    -6.7020 hc         1 CO1       0.049700
     34 H9          -3.0050     0.3300    -4.6860 ha         1 CO1       0.168000
     35 H41         -2.5850    -0.6680    -2.3100 hc         1 CO1       0.046700
     36 H42         -2.8930     1.0450    -2.3380 hc         1 CO1       0.046700
     37 H1          -0.5940     1.6040    -2.0270 hc         1 CO1       0.054700
     38 H3          -0.0470    -1.3150    -2.6480 hc         1 CO1       0.045700
     39 H81          2.0060     0.8240    -1.9550 hc         1 CO1       0.039700
     40 H82          2.3480    -0.8370    -2.3570 hc         1 CO1       0.039700
     41 H111         2.4520    -0.4740     0.0520 hc         1 CO1       0.039700
     42 H112         1.1890    -1.6250    -0.3280 hc         1 CO1       0.039700
     43 H121         1.0580     2.1770    -0.6010 hc         1 CO1       0.032700
     44 H122         0.0880     2.3750     0.8470 hc         1 CO1       0.032700
     45 H123         1.7550     1.8460     0.9730 hc         1 CO1       0.032700
     46 H10         -0.1460    -1.3150     1.5950 hc         1 CO1       0.043700
     47 H131        -1.4840     1.2510     2.4480 hc         1 CO1       0.042700
     48 H132        -2.1740    -0.3440     2.2750 hc         1 CO1       0.042700
     49 H61         -2.0120     1.8080     0.2350 hc         1 CO1       0.041700
     50 H62         -2.9590     0.3370     0.1600 hc         1 CO1       0.041700
     51 H2          -1.0870    -0.9770    -0.5230 hc         1 CO1       0.042700
     52 H17          0.7910     1.1560     3.0790 hc         1 CO1       0.047700
     53 H211         2.2930    -1.4440     2.4860 hc         1 CO1       0.032033
     54 H212         2.7760     0.1810     2.0110 hc         1 CO1       0.032033
     55 H213         2.8010    -0.2710     3.6970 hc         1 CO1       0.032033
     56 H201         0.2250    -1.6750     4.0470 hc         1 CO1       0.045200
     57 H202        -0.9180    -0.3590     4.1690 hc         1 CO1       0.045200
     58 H231         0.6690     0.9240     5.5960 hc         1 CO1       0.050200
     59 H232         1.8060    -0.4080     5.5460 hc         1 CO1       0.050200
     60 H25          0.1100    -1.9540     6.5480 h1         1 CO1       0.075700
     61 H281        -0.9450    -0.9200     9.8850 hc         1 CO1       0.045700
     62 H282        -0.5930    -2.2760     8.8070 hc         1 CO1       0.045700
     63 H283         0.7220    -1.4170     9.6140 hc         1 CO1       0.045700
     64 H291        -0.3110     1.4610     9.1460 hc         1 CO1       0.045700
     65 H292         1.3430     0.9970     8.7680 hc         1 CO1       0.045700
     66 H293         0.3340     1.7450     7.5310 hc         1 CO1       0.045700
     67 H161         1.1720     1.7610    -5.3970 hc         1 CO1       0.034700
     68 H162         0.7090     2.2340    -3.7750 hc         1 CO1       0.034700
     69 H163         2.2190     1.3610    -4.0520 hc         1 CO1       0.034700
     70 H151         0.7800    -1.9880    -4.5740 hc         1 CO1       0.042200
     71 H152         2.2490    -1.0360    -4.5140 hc         1 CO1       0.042200
     72 H191         1.7700    -1.8090    -6.7970 hc         1 CO1       0.052700
     73 H192         1.7580    -0.0550    -6.7350 hc         1 CO1       0.052700
@<TRIPOS>BOND
     1     1     2 1   
     2     1    30 1   
     3     2     3 1   
     4     2    29 1   
     5     2    31 1   
     6     3     4 1   
     7     3    32 1   
     8     3    33 1   
     9     4     5 2   
    10     4    26 1   
    11     5     6 1   
    12     5    34 1   
    13     6     7 1   
    14     6    35 1   
    15     6    36 1   
    16     7     8 1   
    17     7    16 1   
    18     7    37 1   
    19     8     9 1   
    20     8    26 1   
    21     8    38 1   
    22     9    10 1   
    23     9    39 1   
    24     9    40 1   
    25    10    11 1   
    26    10    41 1   
    27    10    42 1   
    28    11    12 1   
    29    11    13 1   
    30    11    16 1   
    31    12    43 1   
    32    12    44 1   
    33    12    45 1   
    34    13    14 1   
    35    13    17 1   
    36    13    46 1   
    37    14    15 1   
    38    14    47 1   
    39    14    48 1   
    40    15    16 1   
    41    15    49 1   
    42    15    50 1   
    43    16    51 1   
    44    17    18 1   
    45    17    19 1   
    46    17    52 1   
    47    18    53 1   
    48    18    54 1   
    49    18    55 1   
    50    19    20 1   
    51    19    56 1   
    52    19    57 1   
    53    20    21 1   
    54    20    58 1   
    55    20    59 1   
    56    21    22 1   
    57    21    23 1   
    58    21    60 1   
    59    22    23 1   
    60    23    24 1   
    61    23    25 1   
    62    24    61 1   
    63    24    62 1   
    64    24    63 1   
    65    25    64 1   
    66    25    65 1   
    67    25    66 1   
    68    26    27 1   
    69    26    28 1   
    70    27    67 1   
    71    27    68 1   
    72    27    69 1   
    73    28    29 1   
    74    28    70 1   
    75    28    71 1   
    76    29    72 1   
    77    29    73 1   
@<TRIPOS>SUBSTRUCTURE
     1 CO1         1 TEMP              0 ****  ****    0 ROOT
