@<TRIPOS>MOLECULE
CO1
   73    77     1     0     0
SMALL
No Charge or Current Charge


@<TRIPOS>ATOM
      1 O24          0.0000     0.0000     0.0000 oh         1 CO1      -0.660000
      2 C22          0.0000     0.0000     0.0000 c6         1 CO1       0.172300
      3 C18          0.0000     0.0000     0.0000 c6         1 CO1      -0.074200
      4 C14          0.0000     0.0000     0.0000 c2         1 CO1      -0.108400
      5 C9           0.0000     0.0000     0.0000 c2         1 CO1      -0.216200
      6 C4           0.0000     0.0000     0.0000 c6         1 CO1      -0.037200
      7 C1           0.0000     0.0000     0.0000 c6         1 CO1      -0.041700
      8 C3           0.0000     0.0000     0.0000 c6         1 CO1      -0.046700
      9 C8           0.0000     0.0000     0.0000 c6         1 CO1      -0.071400
     10 C11          0.0000     0.0000     0.0000 c6         1 CO1      -0.061400
     11 C5           0.0000     0.0000     0.0000 c5         1 CO1      -0.037000
     12 C12          0.0000     0.0000     0.0000 c3         1 CO1      -0.078100
     13 C10          0.0000     0.0000     0.0000 c5         1 CO1      -0.053700
     14 C13          0.0000     0.0000     0.0000 c5         1 CO1      -0.077400
     15 C6           0.0000     0.0000     0.0000 c5         1 CO1      -0.072400
     16 C2           0.0000     0.0000     0.0000 c5         1 CO1      -0.065700
     17 C17          0.0000     0.0000     0.0000 c3         1 CO1      -0.046700
     18 C21          0.0000     0.0000     0.0000 c3         1 CO1      -0.087100
     19 C20          0.0000     0.0000     0.0000 c3         1 CO1      -0.075400
     20 C23          0.0000     0.0000     0.0000 c3         1 CO1      -0.065400
     21 C25          0.0000     0.0000     0.0000 cx         1 CO1       0.092300
     22 O27          0.0000     0.0000     0.0000 op         1 CO1      -0.443000
     23 C26          0.0000     0.0000     0.0000 cx         1 CO1       0.104000
     24 C28          0.0000     0.0000     0.0000 c3         1 CO1      -0.079100
     25 C29          0.0000     0.0000     0.0000 c3         1 CO1      -0.079100
     26 C7           0.0000     0.0000     0.0000 c6         1 CO1       0.004200
     27 C16          0.0000     0.0000     0.0000 c3         1 CO1      -0.079100
     28 C15          0.0000     0.0000     0.0000 c6         1 CO1      -0.067400
     29 C19          0.0000     0.0000     0.0000 c6         1 CO1      -0.072400
     30 H24          0.0000     0.0000     0.0000 ho         1 CO1       0.441000
     31 H22          0.0000     0.0000     0.0000 h1         1 CO1       0.030700
     32 H181         0.0000     0.0000     0.0000 hc         1 CO1       0.049700
     33 H182         0.0000     0.0000     0.0000 hc         1 CO1       0.049700
     34 H9           0.0000     0.0000     0.0000 ha         1 CO1       0.168000
     35 H41          0.0000     0.0000     0.0000 hc         1 CO1       0.046700
     36 H42          0.0000     0.0000     0.0000 hc         1 CO1       0.046700
     37 H1           0.0000     0.0000     0.0000 hc         1 CO1       0.054700
     38 H3           0.0000     0.0000     0.0000 hc         1 CO1       0.045700
     39 H81          0.0000     0.0000     0.0000 hc         1 CO1       0.039700
     40 H82          0.0000     0.0000     0.0000 hc         1 CO1       0.039700
     41 H111         0.0000     0.0000     0.0000 hc         1 CO1       0.039700
     42 H112         0.0000     0.0000     0.0000 hc         1 CO1       0.039700
     43 H121         0.0000     0.0000     0.0000 hc         1 CO1       0.032700
     44 H122         0.0000     0.0000     0.0000 hc         1 CO1       0.032700
     45 H123         0.0000     0.0000     0.0000 hc         1 CO1       0.032700
     46 H10          0.0000     0.0000     0.0000 hc         1 CO1       0.043700
     47 H131         0.0000     0.0000     0.0000 hc         1 CO1       0.042700
     48 H132         0.0000     0.0000     0.0000 hc         1 CO1       0.042700
     49 H61          0.0000     0.0000     0.0000 hc         1 CO1       0.041700
     50 H62          0.0000     0.0000     0.0000 hc         1 CO1       0.041700
     51 H2           0.0000     0.0000     0.0000 hc         1 CO1       0.042700
     52 H17          0.0000     0.0000     0.0000 hc         1 CO1       0.047700
     53 H211         0.0000     0.0000     0.0000 hc         1 CO1       0.032033
     54 H212         0.0000     0.0000     0.0000 hc         1 CO1       0.032033
     55 H213         0.0000     0.0000     0.0000 hc         1 CO1       0.032033
     56 H201         0.0000     0.0000     0.0000 hc         1 CO1       0.045200
     57 H202         0.0000     0.0000     0.0000 hc         1 CO1       0.045200
     58 H231         0.0000     0.0000     0.0000 hc         1 CO1       0.050200
     59 H232         0.0000     0.0000     0.0000 hc         1 CO1       0.050200
     60 H25          0.0000     0.0000     0.0000 h1         1 CO1       0.075700
     61 H281         0.0000     0.0000     0.0000 hc         1 CO1       0.045700
     62 H282         0.0000     0.0000     0.0000 hc         1 CO1       0.045700
     63 H283         0.0000     0.0000     0.0000 hc         1 CO1       0.045700
     64 H291         0.0000     0.0000     0.0000 hc         1 CO1       0.045700
     65 H292         0.0000     0.0000     0.0000 hc         1 CO1       0.045700
     66 H293         0.0000     0.0000     0.0000 hc         1 CO1       0.045700
     67 H161         0.0000     0.0000     0.0000 hc         1 CO1       0.034700
     68 H162         0.0000     0.0000     0.0000 hc         1 CO1       0.034700
     69 H163         0.0000     0.0000     0.0000 hc         1 CO1       0.034700
     70 H151         0.0000     0.0000     0.0000 hc         1 CO1       0.042200
     71 H152         0.0000     0.0000     0.0000 hc         1 CO1       0.042200
     72 H191         0.0000     0.0000     0.0000 hc         1 CO1       0.052700
     73 H192         0.0000     0.0000     0.0000 hc         1 CO1       0.052700
@<TRIPOS>BOND
     1     1     2 1   
     2     1    30 1   
     3     2     3 1   
     4     2    29 1   
     5     2    31 1   
     6     3     4 1   
     7     3    32 1   
     8     3    33 1   
     9     4     5 2   
    10     4    26 1   
    11     5     6 1   
    12     5    34 1   
    13     6     7 1   
    14     6    35 1   
    15     6    36 1   
    16     7     8 1   
    17     7    16 1   
    18     7    37 1   
    19     8     9 1   
    20     8    26 1   
    21     8    38 1   
    22     9    10 1   
    23     9    39 1   
    24     9    40 1   
    25    10    11 1   
    26    10    41 1   
    27    10    42 1   
    28    11    12 1   
    29    11    13 1   
    30    11    16 1   
    31    12    43 1   
    32    12    44 1   
    33    12    45 1   
    34    13    14 1   
    35    13    17 1   
    36    13    46 1   
    37    14    15 1   
    38    14    47 1   
    39    14    48 1   
    40    15    16 1   
    41    15    49 1   
    42    15    50 1   
    43    16    51 1   
    44    17    18 1   
    45    17    19 1   
    46    17    52 1   
    47    18    53 1   
    48    18    54 1   
    49    18    55 1   
    50    19    20 1   
    51    19    56 1   
    52    19    57 1   
    53    20    21 1   
    54    20    58 1   
    55    20    59 1   
    56    21    22 1   
    57    21    23 1   
    58    21    60 1   
    59    22    23 1   
    60    23    24 1   
    61    23    25 1   
    62    24    61 1   
    63    24    62 1   
    64    24    63 1   
    65    25    64 1   
    66    25    65 1   
    67    25    66 1   
    68    26    27 1   
    69    26    28 1   
    70    27    67 1   
    71    27    68 1   
    72    27    69 1   
    73    28    29 1   
    74    28    70 1   
    75    28    71 1   
    76    29    72 1   
    77    29    73 1   
@<TRIPOS>SUBSTRUCTURE
     1 CO1         1 TEMP              0 ****  ****    0 ROOT
