@<TRIPOS>MOLECULE
CO2
    3     2     1     0     0
SMALL
bcc


@<TRIPOS>ATOM
      1 C           66.3470   105.0480    70.2350 c1         1 CO2       0.877000
      2 O1          65.6180   105.9020    69.9620 o          1 CO2      -0.438500
      3 O2          67.0760   104.1950    70.5080 o          1 CO2      -0.438500
@<TRIPOS>BOND
     1     1     2 2   
     2     1     3 2   
@<TRIPOS>SUBSTRUCTURE
     1 CO2         1 TEMP              0 ****  ****    0 ROOT
