@<TRIPOS>MOLECULE
CO3
    4     3     1     0     0
SMALL
abcg2


@<TRIPOS>ATOM
      1 C           68.0140    55.9800    15.7650 c          1 CO3       0.886000
      2 O1          69.1250    56.1560    15.1440 o          1 CO3      -0.962000
      3 O2          66.9620    55.6320    15.1160 o          1 CO3      -0.962000
      4 O3          67.9570    56.1570    17.0380 o          1 CO3      -0.962000
@<TRIPOS>BOND
     1     1     2 1   
     2     1     3 1   
     3     1     4 1   
@<TRIPOS>SUBSTRUCTURE
     1 CO3         1 TEMP              0 ****  ****    0 ROOT
