@<TRIPOS>MOLECULE
CO3
    4     3     1     0     0
SMALL
No Charge or Current Charge


@<TRIPOS>ATOM
      1 C           68.0150    55.9810    15.7660 c          1 CO3       0.886000
      2 O1          69.0550    56.1450    15.1820 o          1 CO3      -0.962000
      3 O2          67.0280    55.6540    15.1570 o          1 CO3      -0.962000
      4 O3          67.9600    56.1450    16.9580 o          1 CO3      -0.962000
@<TRIPOS>BOND
     1     1     2 1   
     2     1     3 1   
     3     1     4 1   
@<TRIPOS>SUBSTRUCTURE
     1 CO3         1 TEMP              0 ****  ****    0 ROOT
