@<TRIPOS>MOLECULE
CO9
   56    59     1     0     0
SMALL
No Charge or Current Charge


@<TRIPOS>ATOM
      1 C1           7.3070    -4.7350     1.4720 c3         1 CO9      -0.091100
      2 N1           5.5750    -6.4020     2.0900 n8         1 CO9      -0.985200
      3 O1           1.8070    -2.8340    -2.2000 o          1 CO9      -0.636100
      4 C2           5.8070    -4.9690     1.7460 c3         1 CO9       0.155200
      5 N2           3.7640    -3.8160     0.7880 nc         1 CO9      -0.638000
      6 C3           4.9120    -4.4610     0.6050 cd         1 CO9       0.421300
      7 N3           1.1490    -2.3450    -0.0630 n          1 CO9      -0.364800
      8 C4           3.3120    -3.5870    -0.4960 cc         1 CO9       0.192500
      9 N4          -1.0570     0.1590    -1.7150 ns         1 CO9      -0.458900
     10 C5           2.0620    -2.9050    -1.0000 c          1 CO9       0.549600
     11 N5           2.3720    -0.2760    -4.7950 na         1 CO9      -0.225700
     12 O5           5.2570    -4.6900    -0.7000 os         1 CO9      -0.270000
     13 C6           1.3270    -2.3160     1.4090 c5         1 CO9       0.122000
     14 C7           0.1820    -1.3780     1.8730 c5         1 CO9      -0.096400
     15 C8          -0.9220    -1.6660     0.8270 c5         1 CO9      -0.082400
     16 C9          -0.1130    -1.6860    -0.5050 c5         1 CO9       0.014700
     17 C10          0.0820    -0.2270    -1.0340 c          1 CO9       0.584100
     18 C11         -1.2370     1.4460    -2.4320 c3         1 CO9      -0.036300
     19 C12         -0.9350     1.3030    -3.9440 c3         1 CO9      -0.007200
     20 C13          0.4900     0.9190    -4.2470 cc         1 CO9      -0.117400
     21 C14          0.9670    -0.3330    -4.6240 cd         1 CO9      -0.153100
     22 C15          2.7360     1.0280    -4.5180 ca         1 CO9      -0.047200
     23 C16          4.0220     1.5860    -4.5480 ca         1 CO9      -0.143000
     24 C17          4.1630     2.9520    -4.2240 ca         1 CO9      -0.108000
     25 C18          3.0290     3.7240    -3.8790 ca         1 CO9      -0.164000
     26 C19          1.7460     3.1360    -3.8550 ca         1 CO9      -0.042000
     27 C20          1.6420     1.7760    -4.1840 ca         1 CO9      -0.071800
     28 C21         -2.6740     2.0000    -2.2030 c          1 CO9       0.713000
     29 C22          4.2180    -4.1220    -1.3690 cd         1 CO9       0.152900
     30 H11A         7.4960    -3.6740     1.2700 hc         1 CO9       0.045700
     31 H12          7.9130    -5.0270     2.3380 hc         1 CO9       0.045700
     32 H13          7.6440    -5.3140     0.6040 hc         1 CO9       0.045700
     33 HN11         4.6020    -6.5150     2.4020 hn         1 CO9       0.404500
     34 HN12         6.1220    -6.6390     2.9270 hn         1 CO9       0.404500
     35 H2           5.5490    -4.3840     2.6410 h1         1 CO9       0.031700
     36 HN4         -1.8240    -0.5040    -1.7390 hn         1 CO9       0.329500
     37 H61          2.3020    -1.9110     1.7080 h1         1 CO9       0.052200
     38 H62          1.2140    -3.3230     1.8320 h1         1 CO9       0.052200
     39 H71          0.4960    -0.3280     1.8400 hc         1 CO9       0.056700
     40 H72         -0.1390    -1.5880     2.8990 hc         1 CO9       0.056700
     41 H81         -1.3890    -2.6410     1.0130 hc         1 CO9       0.058700
     42 H82         -1.7230    -0.9180     0.8370 hc         1 CO9       0.058700
     43 H9          -0.6260    -2.2730    -1.2780 h1         1 CO9       0.081700
     44 H11         -0.5410     2.1820    -2.0090 h1         1 CO9       0.063700
     45 H121        -1.6180     0.5630    -4.3800 hc         1 CO9       0.050200
     46 H122        -1.1620     2.2550    -4.4400 hc         1 CO9       0.050200
     47 H14          0.4130    -1.2570    -4.7670 h4         1 CO9       0.215000
     48 H16          4.8880     0.9840    -4.8140 ha         1 CO9       0.092000
     49 H17          5.1480     3.4130    -4.2390 ha         1 CO9       0.088000
     50 H18          3.1450     4.7760    -3.6300 ha         1 CO9       0.094000
     51 H19          0.8670     3.7190    -3.5910 ha         1 CO9       0.121000
     52 H22          4.2300    -4.1580    -2.4510 h4         1 CO9       0.076100
     53 O4          -2.7930     3.1500    -1.8030 o          1 CO9      -0.725500
     54 O2           1.0660     0.4920    -0.8960 o          1 CO9      -0.626100
     55 O3          -3.6220     1.2380    -2.3430 o          1 CO9      -0.725500
     56 HN5          2.9880    -1.0410    -5.0510 hn         1 CO9       0.335000
@<TRIPOS>BOND
     1     1     4 1   
     2     1    30 1   
     3     1    31 1   
     4     1    32 1   
     5     2     4 1   
     6     2    33 1   
     7     2    34 1   
     8     3    10 2   
     9     4     6 1   
    10     4    35 1   
    11     5     6 2   
    12     5     8 1   
    13     6    12 1   
    14     7    10 1   
    15     7    13 1   
    16     7    16 1   
    17     8    10 1   
    18     8    29 2   
    19     9    17 1   
    20     9    18 1   
    21     9    36 1   
    22    11    21 1   
    23    11    22 1   
    24    11    56 1   
    25    12    29 1   
    26    13    14 1   
    27    13    37 1   
    28    13    38 1   
    29    14    15 1   
    30    14    39 1   
    31    14    40 1   
    32    15    16 1   
    33    15    41 1   
    34    15    42 1   
    35    16    17 1   
    36    16    43 1   
    37    17    54 2   
    38    18    19 1   
    39    18    28 1   
    40    18    44 1   
    41    19    20 1   
    42    19    45 1   
    43    19    46 1   
    44    20    21 2   
    45    20    27 1   
    46    21    47 1   
    47    22    23 ar  
    48    22    27 ar  
    49    23    24 ar  
    50    23    48 1   
    51    24    25 ar  
    52    24    49 1   
    53    25    26 ar  
    54    25    50 1   
    55    26    27 ar  
    56    26    51 1   
    57    28    53 1   
    58    28    55 1   
    59    29    52 1   
@<TRIPOS>SUBSTRUCTURE
     1 CO9         1 TEMP              0 ****  ****    0 ROOT
