@<TRIPOS>MOLECULE
CO9
   56    59     1     0     0
SMALL
abcg2


@<TRIPOS>ATOM
      1 C1           6.4040    -5.8460     1.0400 c3         1 CO9      -0.091100
      2 N1           5.6810    -3.9860     2.4360 n8         1 CO9      -0.985200
      3 O1           1.5560    -2.9120    -2.3730 o          1 CO9      -0.636100
      4 C2           6.1080    -4.3480     1.0990 c3         1 CO9       0.155200
      5 N2           3.8480    -3.5330     0.3680 nc         1 CO9      -0.638000
      6 C3           5.0260    -3.9870     0.1340 cd         1 CO9       0.421300
      7 N3           1.1120    -2.4230    -0.2250 n          1 CO9      -0.364800
      8 C4           3.2720    -3.3650    -0.8760 cc         1 CO9       0.192500
      9 N4          -1.1270    -0.1780    -1.9610 ns         1 CO9      -0.458900
     10 C5           1.9150    -2.8750    -1.1990 c          1 CO9       0.549600
     11 N5           2.5430    -0.3090    -4.1130 na         1 CO9      -0.225700
     12 O5           5.2860    -4.1340    -1.1780 os         1 CO9      -0.270000
     13 C6           1.4060    -2.2690     1.2020 c5         1 CO9       0.122000
     14 C7           0.1980    -1.5120     1.7470 c5         1 CO9      -0.096400
     15 C8          -0.9200    -1.8610     0.7730 c5         1 CO9      -0.082400
     16 C9          -0.2000    -1.9160    -0.5780 c5         1 CO9       0.014700
     17 C10         -0.0910    -0.5140    -1.1840 c          1 CO9       0.584100
     18 C11         -1.3590     1.1310    -2.5190 c3         1 CO9      -0.036300
     19 C12         -0.7870     1.2460    -3.9500 c3         1 CO9      -0.007200
     20 C13          0.6570     0.8990    -4.0220 cc         1 CO9      -0.117400
     21 C14          1.1830    -0.3400    -4.2420 cd         1 CO9      -0.153100
     22 C15          2.9350     0.9560    -3.7890 ca         1 CO9      -0.047200
     23 C16          4.2050     1.4790    -3.5560 ca         1 CO9      -0.143000
     24 C17          4.2960     2.8240    -3.2450 ca         1 CO9      -0.108000
     25 C18          3.1510     3.6330    -3.1750 ca         1 CO9      -0.164000
     26 C19          1.8930     3.1090    -3.4110 ca         1 CO9      -0.042000
     27 C20          1.7680     1.7520    -3.7240 ca         1 CO9      -0.071800
     28 C21         -2.8750     1.4330    -2.5600 c          1 CO9       0.713000
     29 C22          4.1680    -3.7430    -1.8170 cd         1 CO9       0.152900
     30 H11A         6.7240    -6.1540     0.0460 hc         1 CO9       0.045700
     31 H12          7.2070    -6.0910     1.7370 hc         1 CO9       0.045700
     32 H13          5.5220    -6.4230     1.3190 hc         1 CO9       0.045700
     33 HN11         5.5150    -2.9890     2.4930 hn         1 CO9       0.404500
     34 HN12         6.4380    -4.1820     3.0790 hn         1 CO9       0.404500
     35 H2           7.0140    -3.8150     0.7720 h1         1 CO9       0.031700
     36 HN4         -1.8980    -0.8220    -2.0610 hn         1 CO9       0.329500
     37 H61          2.3360    -1.7290     1.3630 h1         1 CO9       0.052200
     38 H62          1.5080    -3.2460     1.6770 h1         1 CO9       0.052200
     39 H71          0.3880    -0.4390     1.7410 hc         1 CO9       0.056700
     40 H72         -0.0280    -1.8030     2.7720 hc         1 CO9       0.056700
     41 H81         -1.3350    -2.8460     0.9990 hc         1 CO9       0.058700
     42 H82         -1.7440    -1.1470     0.7810 hc         1 CO9       0.058700
     43 H9          -0.7040    -2.5910    -1.2720 h1         1 CO9       0.081700
     44 H11         -0.8610     1.8710    -1.8890 h1         1 CO9       0.063700
     45 H121        -1.3610     0.5850    -4.6060 hc         1 CO9       0.050200
     46 H122        -0.9630     2.2640    -4.3040 hc         1 CO9       0.050200
     47 H14          0.6780    -1.2630    -4.4720 h4         1 CO9       0.215000
     48 H16          5.0900     0.8560    -3.6150 ha         1 CO9       0.092000
     49 H17          5.2680     3.2600    -3.0550 ha         1 CO9       0.088000
     50 H18          3.2590     4.6830    -2.9330 ha         1 CO9       0.094000
     51 H19          1.0180     3.7460    -3.3550 ha         1 CO9       0.121000
     52 H22          4.1610    -3.7860    -2.8930 h4         1 CO9       0.076100
     53 O4          -3.1790     2.6110    -2.8210 o          1 CO9      -0.725500
     54 O2           0.8370     0.2270    -0.9000 o          1 CO9      -0.626100
     55 O3          -3.6530     0.4770    -2.3720 o          1 CO9      -0.725500
     56 HN5          3.1420    -1.1120    -4.1800 hn         1 CO9       0.335000
@<TRIPOS>BOND
     1     1     4 1   
     2     1    30 1   
     3     1    31 1   
     4     1    32 1   
     5     2     4 1   
     6     2    33 1   
     7     2    34 1   
     8     3    10 2   
     9     4     6 1   
    10     4    35 1   
    11     5     6 2   
    12     5     8 1   
    13     6    12 1   
    14     7    10 1   
    15     7    13 1   
    16     7    16 1   
    17     8    10 1   
    18     8    29 2   
    19     9    17 1   
    20     9    18 1   
    21     9    36 1   
    22    11    21 1   
    23    11    22 1   
    24    11    56 1   
    25    12    29 1   
    26    13    14 1   
    27    13    37 1   
    28    13    38 1   
    29    14    15 1   
    30    14    39 1   
    31    14    40 1   
    32    15    16 1   
    33    15    41 1   
    34    15    42 1   
    35    16    17 1   
    36    16    43 1   
    37    17    54 2   
    38    18    19 1   
    39    18    28 1   
    40    18    44 1   
    41    19    20 1   
    42    19    45 1   
    43    19    46 1   
    44    20    21 2   
    45    20    27 1   
    46    21    47 1   
    47    22    23 ar  
    48    22    27 ar  
    49    23    24 ar  
    50    23    48 1   
    51    24    25 ar  
    52    24    49 1   
    53    25    26 ar  
    54    25    50 1   
    55    26    27 ar  
    56    26    51 1   
    57    28    53 1   
    58    28    55 1   
    59    29    52 1   
@<TRIPOS>SUBSTRUCTURE
     1 CO9         1 TEMP              0 ****  ****    0 ROOT
