@<TRIPOS>MOLECULE
COC
   43    45     1     0     0
SMALL
abcg2


@<TRIPOS>ATOM
      1 C1           3.3380     0.7500    -0.5050 c3         1 COC       0.150900
      2 O5           1.9680     0.3970    -0.6900 os         1 COC      -0.413100
      3 C6           1.7080    -0.7730    -1.2370 c          1 COC       0.617100
      4 O7           2.5680    -1.5470    -1.5860 o          1 COC      -0.509000
      5 C8           0.2380    -1.0810    -1.4250 c6         1 COC      -0.107700
      6 C10         -0.0880    -0.9120    -2.9220 c5         1 COC       0.160500
      7 N12          0.0650     0.5000    -3.2450 n3         1 COC      -0.692600
      8 C14          0.2020     0.7390    -4.6690 c3         1 COC       0.146100
      9 C18         -1.5630    -1.2510    -3.2380 c5         1 COC      -0.109400
     10 C21         -2.2870     0.1020    -3.0930 c5         1 COC      -0.114400
     11 C24         -1.1560     1.0730    -2.6790 c5         1 COC       0.160500
     12 C26         -0.9970     1.1360    -1.1600 c6         1 COC      -0.086400
     13 C29         -0.7630    -0.2650    -0.6090 c6         1 COC       0.194300
     14 O1          -0.3150    -0.2380     0.7520 os         1 COC      -0.438100
     15 C2          -1.2070    -0.1300     1.7240 c          1 COC       0.612700
     16 O3          -2.4000    -0.0790     1.5460 o          1 COC      -0.497000
     17 C4          -0.5740    -0.0780     3.0670 ca         1 COC      -0.143600
     18 C5          -1.4040    -0.0300     4.1850 ca         1 COC      -0.054500
     19 C7          -0.8590     0.0240     5.4580 ca         1 COC      -0.129000
     20 C9           0.5200     0.0320     5.6250 ca         1 COC      -0.080000
     21 C11          1.3520    -0.0130     4.5140 ca         1 COC      -0.129000
     22 C13          0.8110    -0.0680     3.2380 ca         1 COC      -0.054500
     23 H2           3.8530     0.0340     0.1350 h1         1 COC       0.046367
     24 H3           3.8630     0.8230    -1.4580 h1         1 COC       0.046367
     25 H4           3.3320     1.7240    -0.0230 h1         1 COC       0.046367
     26 H9           0.1160    -2.1390    -1.1690 hc         1 COC       0.085700
     27 H11          0.6060    -1.5200    -3.5040 h1         1 COC       0.084700
     28 H15          0.2910     1.8100    -4.8530 h1         1 COC       0.035033
     29 H16          1.1150     0.2640    -5.0300 h1         1 COC       0.035033
     30 H17         -0.6300     0.3640    -5.2810 h1         1 COC       0.035033
     31 H19         -1.9610    -2.0250    -2.5790 hc         1 COC       0.052700
     32 H20         -1.6450    -1.6360    -4.2550 hc         1 COC       0.052700
     33 H22         -3.0930     0.0750    -2.3580 hc         1 COC       0.053700
     34 H23         -2.7340     0.4120    -4.0380 hc         1 COC       0.053700
     35 H25         -1.3140     2.0830    -3.0630 h1         1 COC       0.069700
     36 H27         -1.8970     1.5630    -0.7140 hc         1 COC       0.068700
     37 H28         -0.1630     1.7940    -0.9130 hc         1 COC       0.068700
     38 H30         -1.7070    -0.8150    -0.6420 h1         1 COC       0.062700
     39 H6          -2.4790    -0.0350     4.0610 ha         1 COC       0.133500
     40 H8          -1.5120     0.0600     6.3200 ha         1 COC       0.117500
     41 H10          0.9450     0.0750     6.6190 ha         1 COC       0.115000
     42 H12          2.4270    -0.0040     4.6390 ha         1 COC       0.117500
     43 H14          1.4720    -0.0970     2.3830 ha         1 COC       0.133500
@<TRIPOS>BOND
     1     1     2 1   
     2     1    23 1   
     3     1    24 1   
     4     1    25 1   
     5     2     3 1   
     6     3     4 2   
     7     3     5 1   
     8     5     6 1   
     9     5    13 1   
    10     5    26 1   
    11     6     7 1   
    12     6     9 1   
    13     6    27 1   
    14     7     8 1   
    15     7    11 1   
    16     8    28 1   
    17     8    29 1   
    18     8    30 1   
    19     9    10 1   
    20     9    31 1   
    21     9    32 1   
    22    10    11 1   
    23    10    33 1   
    24    10    34 1   
    25    11    12 1   
    26    11    35 1   
    27    12    13 1   
    28    12    36 1   
    29    12    37 1   
    30    13    14 1   
    31    13    38 1   
    32    14    15 1   
    33    15    16 2   
    34    15    17 1   
    35    17    18 ar  
    36    17    22 ar  
    37    18    19 ar  
    38    18    39 1   
    39    19    20 ar  
    40    19    40 1   
    41    20    21 ar  
    42    20    41 1   
    43    21    22 ar  
    44    21    42 1   
    45    22    43 1   
@<TRIPOS>SUBSTRUCTURE
     1 COC         1 TEMP              0 ****  ****    0 ROOT
