@<TRIPOS>MOLECULE
COC
   43    45     1     0     0
SMALL
No Charge or Current Charge


@<TRIPOS>ATOM
      1 C1           3.3330     0.8470    -0.4840 c3         1 COC       0.150900
      2 O5           1.9760     0.4810    -0.7850 os         1 COC      -0.413100
      3 C6           1.7190    -0.8120    -1.1720 c          1 COC       0.617100
      4 O7           2.5940    -1.6650    -1.2740 o          1 COC      -0.509000
      5 C8           0.2460    -1.1400    -1.4820 c6         1 COC      -0.107700
      6 C10         -0.0480    -0.9230    -2.9970 c5         1 COC       0.160500
      7 N12         -0.0080     0.5330    -3.2950 n3         1 COC      -0.692600
      8 C14          0.1890     0.8830    -4.7240 c3         1 COC       0.146100
      9 C18         -1.5000    -1.2960    -3.4410 c5         1 COC      -0.109400
     10 C21         -2.3180     0.0270    -3.2300 c5         1 COC      -0.114400
     11 C24         -1.2630     1.0410    -2.6850 c5         1 COC       0.160500
     12 C26         -1.0880     1.0290    -1.1420 c6         1 COC      -0.086400
     13 C29         -0.7980    -0.3970    -0.6070 c6         1 COC       0.194300
     14 O1          -0.3720    -0.3810     0.7710 os         1 COC      -0.438100
     15 C2          -1.2370    -0.0650     1.7860 c          1 COC       0.612700
     16 O3          -2.4330     0.1330     1.6160 o          1 COC      -0.497000
     17 C4          -0.5850    -0.0400     3.1500 ca         1 COC      -0.143600
     18 C5          -1.3690     0.2050     4.3000 ca         1 COC      -0.054500
     19 C7          -0.7770     0.2340     5.5750 ca         1 COC      -0.129000
     20 C9           0.6030     0.0190     5.7180 ca         1 COC      -0.080000
     21 C11          1.3920    -0.2230     4.5830 ca         1 COC      -0.129000
     22 C13          0.8050    -0.2530     3.3050 ca         1 COC      -0.054500
     23 H2           3.7260     0.2430     0.3440 h1         1 COC       0.046367
     24 H3           3.9800     0.7020    -1.3590 h1         1 COC       0.046367
     25 H4           3.3870     1.9020    -0.1910 h1         1 COC       0.046367
     26 H9           0.1480    -2.2180    -1.3050 hc         1 COC       0.085700
     27 H11          0.7010    -1.4870    -3.5740 h1         1 COC       0.084700
     28 H15          0.2160     1.9740    -4.8500 h1         1 COC       0.035033
     29 H16          1.1420     0.4790    -5.0890 h1         1 COC       0.035033
     30 H17         -0.6140     0.4880    -5.3600 h1         1 COC       0.035033
     31 H19         -1.9060    -2.1370    -2.8670 hc         1 COC       0.052700
     32 H20         -1.5210    -1.6000    -4.4940 hc         1 COC       0.052700
     33 H22         -3.1590    -0.1060    -2.5390 hc         1 COC       0.053700
     34 H23         -2.7440     0.3760    -4.1770 hc         1 COC       0.053700
     35 H25         -1.4920     2.0710    -2.9960 h1         1 COC       0.069700
     36 H27         -2.0010     1.4240    -0.6790 hc         1 COC       0.068700
     37 H28         -0.2810     1.7180    -0.8630 hc         1 COC       0.068700
     38 H30         -1.7320    -0.9750    -0.6600 h1         1 COC       0.062700
     39 H6          -2.4410     0.3740     4.2090 ha         1 COC       0.133500
     40 H8          -1.3910     0.4230     6.4530 ha         1 COC       0.117500
     41 H10          1.0590     0.0420     6.7050 ha         1 COC       0.115000
     42 H12          2.4620    -0.3890     4.6910 ha         1 COC       0.117500
     43 H14          1.4400    -0.4410     2.4420 ha         1 COC       0.133500
@<TRIPOS>BOND
     1     1     2 1   
     2     1    23 1   
     3     1    24 1   
     4     1    25 1   
     5     2     3 1   
     6     3     4 2   
     7     3     5 1   
     8     5     6 1   
     9     5    13 1   
    10     5    26 1   
    11     6     7 1   
    12     6     9 1   
    13     6    27 1   
    14     7     8 1   
    15     7    11 1   
    16     8    28 1   
    17     8    29 1   
    18     8    30 1   
    19     9    10 1   
    20     9    31 1   
    21     9    32 1   
    22    10    11 1   
    23    10    33 1   
    24    10    34 1   
    25    11    12 1   
    26    11    35 1   
    27    12    13 1   
    28    12    36 1   
    29    12    37 1   
    30    13    14 1   
    31    13    38 1   
    32    14    15 1   
    33    15    16 2   
    34    15    17 1   
    35    17    18 ar  
    36    17    22 ar  
    37    18    19 ar  
    38    18    39 1   
    39    19    20 ar  
    40    19    40 1   
    41    20    21 ar  
    42    20    41 1   
    43    21    22 ar  
    44    21    42 1   
    45    22    43 1   
@<TRIPOS>SUBSTRUCTURE
     1 COC         1 TEMP              0 ****  ****    0 ROOT
