@<TRIPOS>MOLECULE
COD
   77    79     1     0     0
SMALL
No Charge or Current Charge


@<TRIPOS>ATOM
      1 N1          23.2360    24.0520    38.6660 nb         1 COD      -0.324000
      2 C2          22.2790    24.9170    38.2540 ca         1 COD       0.136900
      3 N3          20.9500    24.6710    38.1670 nb         1 COD      -0.197000
      4 C4          20.5530    23.4340    38.5290 ca         1 COD       0.121500
      5 C5          21.4430    22.4820    38.9620 ca         1 COD      -0.077600
      6 C6          22.8110    22.8290    39.0180 ca         1 COD       0.417900
      7 N7          23.7750    21.9640    39.4350 nv         1 COD      -1.078900
      8 N8          20.8200    21.2820    39.2930 nc         1 COD      -0.596100
      9 C9          19.5240    21.5600    39.0360 cd         1 COD       0.483700
     10 N10         19.3070    22.8670    38.5660 na         1 COD      -0.273300
     11 C11         18.0270    23.4530    38.1920 c5         1 COD       0.300300
     12 C12         17.4410    22.9870    36.8270 c5         1 COD       0.156300
     13 O13         18.0460    23.4930    35.6190 oh         1 COD      -0.753000
     14 C14         15.9510    23.4160    37.0530 c5         1 COD       0.106300
     15 O15         15.7570    24.8480    37.0050 oh         1 COD      -0.716000
     16 C16         15.7430    22.8430    38.4960 c5         1 COD       0.117300
     17 O17         17.0270    23.0440    39.1680 os         1 COD      -0.473000
     18 C18         15.2790    21.3400    38.5730 c3         1 COD       0.230600
     19 O19         16.2840    20.4680    38.0330 os         1 COD      -0.624400
     20 P20         16.0090    19.4920    36.7780 p5         1 COD       1.480800
     21 O21         17.2860    18.7800    36.4890 o          1 COD      -0.841500
     22 O22         14.8830    18.5570    37.0690 o          1 COD      -0.841500
     23 O23         15.5950    20.5950    35.7310 os         1 COD      -0.738800
     24 P24         16.2310    20.5410    34.2940 p5         1 COD       1.507800
     25 O25         17.4210    21.4450    34.2000 o          1 COD      -0.857500
     26 O26         16.4680    19.1750    33.7450 o          1 COD      -0.857500
     27 O27         14.9880    21.1830    33.5000 os         1 COD      -0.606400
     28 C28         14.8170    22.6040    33.4270 c3         1 COD       0.227600
     29 C29         13.2950    22.9670    33.4920 c3         1 COD      -0.034000
     30 C30         12.5500    22.3210    32.2850 c3         1 COD      -0.079100
     31 C31         12.6750    22.4100    34.8100 c3         1 COD      -0.079100
     32 C32         13.1620    24.5360    33.4630 c3         1 COD       0.086300
     33 O33         13.7770    25.0750    32.2600 oh         1 COD      -0.654000
     34 C34         11.6950    25.0530    33.6480 c          1 COD       0.562100
     35 O35         11.2060    25.2910    34.7440 o          1 COD      -0.600100
     36 N36         11.0080    25.2960    32.4750 ns         1 COD      -0.513900
     37 C37          9.6280    25.7810    32.3770 c3         1 COD       0.107000
     38 C38          9.5550    27.3040    32.1650 c3         1 COD      -0.187400
     39 C39         10.0440    28.0740    33.3910 c          1 COD       0.600100
     40 O40          9.3570    28.2180    34.3910 o          1 COD      -0.596100
     41 N41         11.2910    28.6430    33.2640 ns         1 COD      -0.512900
     42 C42         11.9660    29.4170    34.3130 c3         1 COD       0.112000
     43 C43         12.4300    28.5440    35.4970 c3         1 COD       0.061600
     44 S44         13.3290    29.4990    36.8120 sh         1 COD      -0.493800
     45 HC2         22.6110    25.9120    37.9650 h5         1 COD       0.023100
     46 HN71        23.4600    21.1170    39.9040 hn         1 COD       0.489000
     47 HN72        24.6730    22.3430    39.7240 hn         1 COD       0.489000
     48 HC9         18.6940    20.8730    39.1660 h5         1 COD       0.128800
     49 HC11        18.1430    24.5440    38.2070 h2         1 COD       0.094700
     50 HC12        17.5430    21.9010    36.7960 h1         1 COD       0.104700
     51 HO13        17.8750    22.7490    34.9440 ho         1 COD       0.585000
     52 HC14        15.2760    22.9180    36.3480 h1         1 COD       0.100700
     53 HO15        14.8560    25.0390    37.3480 ho         1 COD       0.477000
     54 HC16        14.9860    23.4310    39.0310 h1         1 COD       0.035700
     55 H181        15.0910    21.0860    39.6240 h1         1 COD       0.031200
     56 H182        14.3280    21.2350    38.0340 h1         1 COD       0.031200
     57 H281        15.3460    23.1130    34.2410 h1         1 COD       0.029700
     58 H282        15.2450    22.9720    32.4850 h1         1 COD       0.029700
     59 H301        11.4810    22.5600    32.3000 hc         1 COD       0.040867
     60 H302        12.9640    22.6670    31.3300 hc         1 COD       0.040867
     61 H303        12.6380    21.2280    32.3070 hc         1 COD       0.040867
     62 H311        11.5910    22.5740    34.8410 hc         1 COD       0.040867
     63 H312        12.8350    21.3300    34.9040 hc         1 COD       0.040867
     64 H313        13.1120    22.8950    35.6900 hc         1 COD       0.040867
     65 HC32        13.7080    24.9200    34.3360 h1         1 COD       0.064700
     66 HO33        13.9160    26.0380    32.3980 ho         1 COD       0.421000
     67 HN36        11.5180    25.0970    31.6200 hn         1 COD       0.325500
     68 H371         9.1480    25.2770    31.5280 h1         1 COD       0.067700
     69 H372         9.0710    25.5020    33.2830 h1         1 COD       0.067700
     70 H381        10.1620    27.5560    31.2870 hc         1 COD       0.057200
     71 H382         8.5070    27.5690    31.9810 hc         1 COD       0.057200
     72 HN41        11.7710    28.4960    32.3840 hn         1 COD       0.307500
     73 H421        12.8370    29.9180    33.8710 h1         1 COD       0.064700
     74 H422        11.2810    30.1930    34.6790 h1         1 COD       0.064700
     75 H431        11.5590    28.0580    35.9550 h1         1 COD       0.077700
     76 H432        13.0960    27.7550    35.1230 h1         1 COD       0.077700
     77 HS44        13.5530    28.4450    37.6390 hs         1 COD       0.248800
@<TRIPOS>BOND
     1     1     2 ar  
     2     1     6 ar  
     3     2     3 ar  
     4     2    45 1   
     5     3     4 ar  
     6     4     5 ar  
     7     4    10 1   
     8     5     6 ar  
     9     5     8 1   
    10     6     7 1   
    11     7    46 1   
    12     7    47 1   
    13     8     9 2   
    14     9    10 1   
    15     9    48 1   
    16    10    11 1   
    17    11    12 1   
    18    11    17 1   
    19    11    49 1   
    20    12    13 1   
    21    12    14 1   
    22    12    50 1   
    23    13    51 1   
    24    14    15 1   
    25    14    16 1   
    26    14    52 1   
    27    15    53 1   
    28    16    17 1   
    29    16    18 1   
    30    16    54 1   
    31    18    19 1   
    32    18    55 1   
    33    18    56 1   
    34    19    20 1   
    35    20    21 1   
    36    20    22 1   
    37    20    23 1   
    38    23    24 1   
    39    24    25 1   
    40    24    26 1   
    41    24    27 1   
    42    27    28 1   
    43    28    29 1   
    44    28    57 1   
    45    28    58 1   
    46    29    30 1   
    47    29    31 1   
    48    29    32 1   
    49    30    59 1   
    50    30    60 1   
    51    30    61 1   
    52    31    62 1   
    53    31    63 1   
    54    31    64 1   
    55    32    33 1   
    56    32    34 1   
    57    32    65 1   
    58    33    66 1   
    59    34    35 2   
    60    34    36 1   
    61    36    37 1   
    62    36    67 1   
    63    37    38 1   
    64    37    68 1   
    65    37    69 1   
    66    38    39 1   
    67    38    70 1   
    68    38    71 1   
    69    39    40 2   
    70    39    41 1   
    71    41    42 1   
    72    41    72 1   
    73    42    43 1   
    74    42    73 1   
    75    42    74 1   
    76    43    44 1   
    77    43    75 1   
    78    43    76 1   
    79    44    77 1   
@<TRIPOS>SUBSTRUCTURE
     1 COD         1 TEMP              0 ****  ****    0 ROOT
