@<TRIPOS>MOLECULE
COD
   77    79     1     0     0
SMALL
abcg2


@<TRIPOS>ATOM
      1 N1          22.1030    24.8850    39.7430 nb         1 COD      -0.324000
      2 C2          20.8490    25.1350    40.1340 ca         1 COD       0.136900
      3 N3          19.7470    24.4360    39.8670 nb         1 COD      -0.197000
      4 C4          20.0060    23.3610    39.1140 ca         1 COD       0.121500
      5 C5          21.2590    22.9750    38.6390 ca         1 COD      -0.077600
      6 C6          22.3460    23.8010    38.9820 ca         1 COD       0.417900
      7 N7          23.6030    23.5680    38.5620 nv         1 COD      -1.078900
      8 N8          21.1560    21.8100    37.8960 nc         1 COD      -0.596100
      9 C9          19.8800    21.5120    37.9180 cd         1 COD       0.483700
     10 N10         19.1270    22.4140    38.6420 na         1 COD      -0.273300
     11 C11         17.6930    22.4050    38.8390 c5         1 COD       0.300300
     12 C12         16.9070    22.3630    37.5310 c5         1 COD       0.156300
     13 O13         16.8550    23.5910    36.8560 oh         1 COD      -0.753000
     14 C14         15.5890    21.7510    37.9890 c5         1 COD       0.106300
     15 O15         14.8370    22.7490    38.6770 oh         1 COD      -0.716000
     16 C16         16.1010    20.6720    38.9460 c5         1 COD       0.117300
     17 O17         17.3040    21.2310    39.5410 os         1 COD      -0.473000
     18 C18         16.3860    19.3160    38.3220 c3         1 COD       0.230600
     19 O19         17.3620    19.3960    37.2790 os         1 COD      -0.624400
     20 P20         17.0850    18.8980    35.7570 p5         1 COD       1.480800
     21 O21         18.4000    18.9920    35.0630 o          1 COD      -0.841500
     22 O22         16.2970    17.6320    35.7710 o          1 COD      -0.841500
     23 O23         16.0760    20.0650    35.2110 os         1 COD      -0.738800
     24 P24         16.2570    21.2380    34.1060 p5         1 COD       1.507800
     25 O25         17.2710    22.2560    34.5530 o          1 COD      -0.857500
     26 O26         16.4070    20.6490    32.7440 o          1 COD      -0.857500
     27 O27         14.7710    21.8480    34.3160 os         1 COD      -0.606400
     28 C28         14.4710    23.1190    33.7300 c3         1 COD       0.227600
     29 C29         13.0620    23.5620    34.1530 c3         1 COD      -0.034000
     30 C30         12.0120    22.5910    33.6030 c3         1 COD      -0.079100
     31 C31         12.9900    23.6060    35.6830 c3         1 COD      -0.079100
     32 C32         12.8760    24.9850    33.5660 c3         1 COD       0.086300
     33 O33         12.9910    24.9060    32.1440 oh         1 COD      -0.654000
     34 C34         11.5600    25.6570    33.9830 c          1 COD       0.562100
     35 O35         11.4530    26.2090    35.0780 o          1 COD      -0.600100
     36 N36         10.5780    25.6000    33.0700 ns         1 COD      -0.513900
     37 C37          9.3120    26.2980    33.1950 c3         1 COD       0.107000
     38 C38          9.2720    27.5780    32.3450 c3         1 COD      -0.187400
     39 C39         10.2690    28.6030    32.8480 c          1 COD       0.600100
     40 O40         10.0390    29.2900    33.8440 o          1 COD      -0.596100
     41 N41         11.4220    28.6870    32.1510 ns         1 COD      -0.512900
     42 C42         12.5300    29.5370    32.5470 c3         1 COD       0.112000
     43 C43         13.5090    28.7910    33.4500 c3         1 COD       0.061600
     44 S44         14.8390    29.9430    33.9690 sh         1 COD      -0.493800
     45 HC2         20.7160    26.0210    40.7470 h5         1 COD       0.023100
     46 HN71        23.8280    22.6960    38.1130 hn         1 COD       0.489000
     47 HN72        24.3550    24.1160    38.9450 hn         1 COD       0.489000
     48 HC9         19.4220    20.6560    37.4480 h5         1 COD       0.128800
     49 HC11        17.4630    23.3010    39.4180 h2         1 COD       0.094700
     50 HC12        17.3840    21.6260    36.8920 h1         1 COD       0.104700
     51 HO13        16.9720    23.3340    35.9100 ho         1 COD       0.585000
     52 HC14        15.0210    21.3340    37.1590 h1         1 COD       0.100700
     53 HO15        13.9660    22.3860    38.8760 ho         1 COD       0.477000
     54 HC16        15.3800    20.5120    39.7520 h1         1 COD       0.035700
     55 H181        16.7800    18.6500    39.0910 h1         1 COD       0.031200
     56 H182        15.4510    18.8930    37.9490 h1         1 COD       0.031200
     57 H281        15.2010    23.8570    34.0730 h1         1 COD       0.029700
     58 H282        14.5350    23.0440    32.6440 h1         1 COD       0.029700
     59 H301        11.0100    22.8700    33.9320 hc         1 COD       0.040867
     60 H302        12.0230    22.5700    32.5130 hc         1 COD       0.040867
     61 H303        12.2190    21.5840    33.9660 hc         1 COD       0.040867
     62 H311        11.9980    23.8970    36.0240 hc         1 COD       0.040867
     63 H312        13.2180    22.6200    36.0830 hc         1 COD       0.040867
     64 H313        13.7140    24.3110    36.0930 hc         1 COD       0.040867
     65 HC32        13.6680    25.6210    33.9710 h1         1 COD       0.064700
     66 HO33        13.1750    25.7900    31.8000 ho         1 COD       0.421000
     67 HN36        10.8110    25.1800    32.1820 hn         1 COD       0.325500
     68 H371         8.5090    25.6330    32.8770 h1         1 COD       0.067700
     69 H372         9.1630    26.5380    34.2450 h1         1 COD       0.067700
     70 H381         9.4590    27.3260    31.3000 hc         1 COD       0.057200
     71 H382         8.2760    28.0170    32.4190 hc         1 COD       0.057200
     72 HN41        11.5600    28.0580    31.3770 hn         1 COD       0.307500
     73 H421        13.0350    29.8870    31.6470 h1         1 COD       0.064700
     74 H422        12.1210    30.4020    33.0680 h1         1 COD       0.064700
     75 H431        12.9930    28.4140    34.3310 h1         1 COD       0.077700
     76 H432        13.9560    27.9570    32.9110 h1         1 COD       0.077700
     77 HS44        15.5560    29.0510    34.6710 hs         1 COD       0.248800
@<TRIPOS>BOND
     1     1     2 ar  
     2     1     6 ar  
     3     2     3 ar  
     4     2    45 1   
     5     3     4 ar  
     6     4     5 ar  
     7     4    10 1   
     8     5     6 ar  
     9     5     8 1   
    10     6     7 1   
    11     7    46 1   
    12     7    47 1   
    13     8     9 2   
    14     9    10 1   
    15     9    48 1   
    16    10    11 1   
    17    11    12 1   
    18    11    17 1   
    19    11    49 1   
    20    12    13 1   
    21    12    14 1   
    22    12    50 1   
    23    13    51 1   
    24    14    15 1   
    25    14    16 1   
    26    14    52 1   
    27    15    53 1   
    28    16    17 1   
    29    16    18 1   
    30    16    54 1   
    31    18    19 1   
    32    18    55 1   
    33    18    56 1   
    34    19    20 1   
    35    20    21 1   
    36    20    22 1   
    37    20    23 1   
    38    23    24 1   
    39    24    25 1   
    40    24    26 1   
    41    24    27 1   
    42    27    28 1   
    43    28    29 1   
    44    28    57 1   
    45    28    58 1   
    46    29    30 1   
    47    29    31 1   
    48    29    32 1   
    49    30    59 1   
    50    30    60 1   
    51    30    61 1   
    52    31    62 1   
    53    31    63 1   
    54    31    64 1   
    55    32    33 1   
    56    32    34 1   
    57    32    65 1   
    58    33    66 1   
    59    34    35 2   
    60    34    36 1   
    61    36    37 1   
    62    36    67 1   
    63    37    38 1   
    64    37    68 1   
    65    37    69 1   
    66    38    39 1   
    67    38    70 1   
    68    38    71 1   
    69    39    40 2   
    70    39    41 1   
    71    41    42 1   
    72    41    72 1   
    73    42    43 1   
    74    42    73 1   
    75    42    74 1   
    76    43    44 1   
    77    43    75 1   
    78    43    76 1   
    79    44    77 1   
@<TRIPOS>SUBSTRUCTURE
     1 COD         1 TEMP              0 ****  ****    0 ROOT
