@<TRIPOS>MOLECULE
COG
   46    48     1     0     0
SMALL
abcg2


@<TRIPOS>ATOM
      1 C2B          0.2270     1.1620    -5.0420 ca         1 COG       0.395900
      2 C4B          0.1230    -0.9690    -4.2210 ca         1 COG       0.424900
      3 C4A         -0.2510    -0.4500    -2.9280 ca         1 COG      -0.166000
      4 C5B         -0.4980    -1.2510    -1.8000 ca         1 COG      -0.160000
      5 C6B         -0.8680    -0.6890    -0.5840 ca         1 COG       0.310000
      6 C7B         -0.9590     0.7280    -0.5270 ca         1 COG      -0.126000
      7 C8A         -0.3540     0.9500    -2.8650 ca         1 COG       0.055000
      8 C21         -2.5780     1.0500     5.2810 c3         1 COG       0.149900
      9 C7          -1.5810    -0.8850     1.7560 c3         1 COG       0.290100
     10 C61         -0.8500    -2.8800     0.4790 c3         1 COG       0.221100
     11 C1          -0.4870    -0.3190     2.6390 ca         1 COG      -0.108300
     12 C2          -0.8380     0.3290     3.8350 ca         1 COG       0.102100
     13 C3           0.1540     0.8450     4.6520 ca         1 COG      -0.158000
     14 C4           1.5000     0.7270     4.3030 ca         1 COG      -0.161000
     15 C5           1.8530     0.0880     3.1250 ca         1 COG       0.107100
     16 C51          4.1680     0.4510     3.4710 c3         1 COG       0.148900
     17 C6           0.8470    -0.4300     2.3040 ca         1 COG      -0.098000
     18 N1          -0.1100     1.7610    -3.9260 nb         1 COG      -0.276000
     19 N2           0.4360     1.9280    -6.1480 nv         1 COG      -1.047900
     20 N3           0.3520    -0.1680    -5.2370 nb         1 COG      -0.336000
     21 N4           0.2690    -2.2860    -4.4220 nv         1 COG      -1.079900
     22 C8          -0.7160     1.5100    -1.6230 ca         1 COG      -0.080000
     23 O2          -2.1630     0.3970     4.1010 os         1 COG      -0.349100
     24 O5           3.1220    -0.0820     2.6890 os         1 COG      -0.339100
     25 N6          -1.1290    -1.4650     0.5210 nh         1 COG      -0.841400
     26 H5          -0.4000    -2.3240    -1.8800 ha         1 COG       0.101000
     27 H7          -1.2120     1.2220     0.4000 ha         1 COG       0.120000
     28 H211        -3.6630     0.9940     5.3020 h1         1 COG       0.039367
     29 H212        -2.1840     0.5650     6.1790 h1         1 COG       0.039367
     30 H213        -2.2800     2.1020     5.2930 h1         1 COG       0.039367
     31 H7'1        -2.1250    -1.6550     2.3100 h1         1 COG       0.064200
     32 H7'2        -2.3280    -0.1120     1.5560 h1         1 COG       0.064200
     33 H611        -1.0330    -3.3120     1.4590 h1         1 COG       0.033033
     34 H612        -1.4870    -3.4060    -0.2390 h1         1 COG       0.033033
     35 H613         0.1920    -3.0870     0.2150 h1         1 COG       0.033033
     36 H3          -0.0900     1.3470     5.5790 ha         1 COG       0.116000
     37 H4           2.2430     1.1430     4.9690 ha         1 COG       0.117000
     38 H511         5.0950     0.2260     2.9490 h1         1 COG       0.038700
     39 H512         4.0830     1.5360     3.5840 h1         1 COG       0.038700
     40 H513         4.2080    -0.0000     4.4670 h1         1 COG       0.038700
     41 H6           1.1340    -0.9240     1.3830 ha         1 COG       0.138000
     42 HN21         0.9730     1.5160    -6.8920 hn         1 COG       0.477000
     43 HN22         0.6030     2.9090    -5.9950 hn         1 COG       0.477000
     44 HN41         0.4420    -2.6150    -5.3560 hn         1 COG       0.493000
     45 HN42        -0.0370    -2.9670    -3.7520 hn         1 COG       0.493000
     46 H8          -0.7900     2.5870    -1.5410 ha         1 COG       0.128000
@<TRIPOS>BOND
     1     1    18 ar  
     2     1    19 1   
     3     1    20 ar  
     4     2     3 ar  
     5     2    20 ar  
     6     2    21 1   
     7     3     4 ar  
     8     3     7 ar  
     9     4     5 ar  
    10     4    26 1   
    11     5     6 ar  
    12     5    25 1   
    13     6    22 ar  
    14     6    27 1   
    15     7    18 ar  
    16     7    22 ar  
    17     8    23 1   
    18     8    28 1   
    19     8    29 1   
    20     8    30 1   
    21     9    11 1   
    22     9    25 1   
    23     9    31 1   
    24     9    32 1   
    25    10    25 1   
    26    10    33 1   
    27    10    34 1   
    28    10    35 1   
    29    11    12 ar  
    30    11    17 ar  
    31    12    13 ar  
    32    12    23 1   
    33    13    14 ar  
    34    13    36 1   
    35    14    15 ar  
    36    14    37 1   
    37    15    17 ar  
    38    15    24 1   
    39    16    24 1   
    40    16    38 1   
    41    16    39 1   
    42    16    40 1   
    43    17    41 1   
    44    19    42 1   
    45    19    43 1   
    46    21    44 1   
    47    21    45 1   
    48    22    46 1   
@<TRIPOS>SUBSTRUCTURE
     1 COG         1 TEMP              0 ****  ****    0 ROOT
