@<TRIPOS>MOLECULE
COG
   46    48     1     0     0
SMALL
No Charge or Current Charge


@<TRIPOS>ATOM
      1 C2B          0.0380     1.0390    -5.3750 ca         1 COG       0.395900
      2 C4B         -0.3960    -0.9970    -4.4940 ca         1 COG       0.424900
      3 C4A         -0.3670    -0.4460    -3.1910 ca         1 COG      -0.166000
      4 C5B         -0.5760    -1.2160    -2.0200 ca         1 COG      -0.160000
      5 C6B         -0.5390    -0.6170    -0.7430 ca         1 COG       0.310000
      6 C7B         -0.2890     0.7680    -0.6580 ca         1 COG      -0.126000
      7 C8A         -0.1130     0.9420    -3.0890 ca         1 COG       0.055000
      8 C21         -2.8710     0.8930     5.2370 c3         1 COG       0.149900
      9 C7          -1.3480    -0.8050     1.6550 c3         1 COG       0.290100
     10 C61         -0.4240    -2.8370     0.4710 c3         1 COG       0.221100
     11 C1          -0.3670    -0.2750     2.7090 ca         1 COG      -0.108300
     12 C2          -0.8790     0.2890     3.8980 ca         1 COG       0.102100
     13 C3           0.0080     0.7850     4.8800 ca         1 COG      -0.158000
     14 C4           1.3970     0.7220     4.6810 ca         1 COG      -0.161000
     15 C5           1.9150     0.1610     3.4950 ca         1 COG       0.107100
     16 C51          4.2560     0.5500     4.1770 c3         1 COG       0.148900
     17 C6           1.0330    -0.3330     2.5210 ca         1 COG      -0.098000
     18 N1           0.0900     1.6810    -4.2000 nb         1 COG      -0.276000
     19 N2           0.2460     1.7910    -6.4790 nv         1 COG      -1.047900
     20 N3          -0.1930    -0.2580    -5.5900 nb         1 COG      -0.336000
     21 N4          -0.6360    -2.3110    -4.7550 nv         1 COG      -1.079900
     22 C8          -0.0780     1.5360    -1.8160 ca         1 COG      -0.080000
     23 O2          -2.2510     0.3370     4.0630 os         1 COG      -0.349100
     24 O5           3.2700     0.0730     3.2440 os         1 COG      -0.339100
     25 N6          -0.7480    -1.3930     0.4280 nh         1 COG      -0.841400
     26 H5          -0.7750    -2.2790    -2.1010 ha         1 COG       0.101000
     27 H7          -0.2430     1.2590     0.3090 ha         1 COG       0.120000
     28 H211        -3.9630     0.8300     5.1560 h1         1 COG       0.039367
     29 H212        -2.5640     0.3450     6.1360 h1         1 COG       0.039367
     30 H213        -2.6000     1.9500     5.3570 h1         1 COG       0.039367
     31 H7'1        -1.9890    -1.5570     2.1370 h1         1 COG       0.064200
     32 H7'2        -2.0250     0.0130     1.3720 h1         1 COG       0.064200
     33 H611        -0.2450    -3.1650     1.5040 h1         1 COG       0.033033
     34 H612        -1.2510    -3.4300     0.0560 h1         1 COG       0.033033
     35 H613         0.4870    -3.0460    -0.1060 h1         1 COG       0.033033
     36 H3          -0.3620     1.2230     5.8030 ha         1 COG       0.116000
     37 H4           2.0530     1.1120     5.4540 ha         1 COG       0.117000
     38 H511         5.2660     0.3840     3.7800 h1         1 COG       0.038700
     39 H512         4.1350     1.6260     4.3560 h1         1 COG       0.038700
     40 H513         4.1760     0.0210     5.1350 h1         1 COG       0.038700
     41 H6           1.4520    -0.7590     1.6140 ha         1 COG       0.138000
     42 HN21         0.4330     1.3140    -7.3570 hn         1 COG       0.477000
     43 HN22         0.6390     2.7220    -6.3660 hn         1 COG       0.477000
     44 HN41        -0.8470    -2.5700    -5.7150 hn         1 COG       0.493000
     45 HN42        -1.0590    -2.8810    -4.0290 hn         1 COG       0.493000
     46 H8           0.1180     2.6020    -1.7230 ha         1 COG       0.128000
@<TRIPOS>BOND
     1     1    18 ar  
     2     1    19 1   
     3     1    20 ar  
     4     2     3 ar  
     5     2    20 ar  
     6     2    21 1   
     7     3     4 ar  
     8     3     7 ar  
     9     4     5 ar  
    10     4    26 1   
    11     5     6 ar  
    12     5    25 1   
    13     6    22 ar  
    14     6    27 1   
    15     7    18 ar  
    16     7    22 ar  
    17     8    23 1   
    18     8    28 1   
    19     8    29 1   
    20     8    30 1   
    21     9    11 1   
    22     9    25 1   
    23     9    31 1   
    24     9    32 1   
    25    10    25 1   
    26    10    33 1   
    27    10    34 1   
    28    10    35 1   
    29    11    12 ar  
    30    11    17 ar  
    31    12    13 ar  
    32    12    23 1   
    33    13    14 ar  
    34    13    36 1   
    35    14    15 ar  
    36    14    37 1   
    37    15    17 ar  
    38    15    24 1   
    39    16    24 1   
    40    16    38 1   
    41    16    39 1   
    42    16    40 1   
    43    17    41 1   
    44    19    42 1   
    45    19    43 1   
    46    21    44 1   
    47    21    45 1   
    48    22    46 1   
@<TRIPOS>SUBSTRUCTURE
     1 COG         1 TEMP              0 ****  ****    0 ROOT
