@<TRIPOS>MOLECULE
COI
   18    17     1     0     0
SMALL
bcc


@<TRIPOS>ATOM
      1 C1           1.9590    -0.3220     0.0430 c          1 COI       0.856600
      2 O1           1.9490    -1.4560     0.5540 o          1 COI      -0.805300
      3 O2           2.9310     0.3870    -0.2500 o          1 COI      -0.805300
      4 C2           0.5590     0.2890    -0.2730 c          1 COI       0.427100
      5 O3           0.4720     1.4130    -0.7120 o          1 COI      -0.569100
      6 C3          -0.6420    -0.5880    -0.0460 c3         1 COI      -0.189400
      7 C4          -2.0030     0.0780    -0.2200 c3         1 COI      -0.054700
      8 C5          -3.0930    -0.9890    -0.2760 c3         1 COI      -0.081600
      9 C6          -2.2950     1.0690     0.9030 c3         1 COI      -0.081600
     10 H31         -0.5420    -1.4310    -0.7420 hc         1 COI       0.061700
     11 H32         -0.5670    -1.0460     0.9460 hc         1 COI       0.061700
     12 H4          -2.0080     0.6210    -1.1710 hc         1 COI       0.049700
     13 H51         -3.1120    -1.5760     0.6460 hc         1 COI       0.021700
     14 H52         -4.0800    -0.5420    -0.4020 hc         1 COI       0.021700
     15 H53         -2.9340    -1.6820    -1.1050 hc         1 COI       0.021700
     16 H61         -3.2690     1.5410     0.7650 hc         1 COI       0.021700
     17 H62         -2.3130     0.5590     1.8700 hc         1 COI       0.021700
     18 H63         -1.5500     1.8620     0.9580 hc         1 COI       0.021700
@<TRIPOS>BOND
     1     1     2 1   
     2     1     3 1   
     3     1     4 1   
     4     4     5 2   
     5     4     6 1   
     6     6     7 1   
     7     6    10 1   
     8     6    11 1   
     9     7     8 1   
    10     7     9 1   
    11     7    12 1   
    12     8    13 1   
    13     8    14 1   
    14     8    15 1   
    15     9    16 1   
    16     9    17 1   
    17     9    18 1   
@<TRIPOS>SUBSTRUCTURE
     1 COI         1 TEMP              0 ****  ****    0 ROOT
