@<TRIPOS>MOLECULE
COI
   18    17     1     0     0
SMALL
No Charge or Current Charge


@<TRIPOS>ATOM
      1 C1           1.5930     0.1490     0.4840 c          1 COI       0.646000
      2 O1           1.7920    -0.8270     1.2030 o          1 COI      -0.700000
      3 O2           2.1770     1.2200     0.6370 o          1 COI      -0.700000
      4 C2           0.5470     0.0080    -0.7480 c          1 COI       0.427100
      5 O3           0.7400     0.5470    -1.8430 o          1 COI      -0.569100
      6 C3          -0.7200    -0.8440    -0.5150 c3         1 COI      -0.189400
      7 C4          -1.9740     0.0240    -0.2210 c3         1 COI      -0.054700
      8 C5          -3.2490    -0.8460    -0.1530 c3         1 COI      -0.081600
      9 C6          -1.8150     0.8800     1.0570 c3         1 COI      -0.081600
     10 H31         -0.9100    -1.4380    -1.4170 hc         1 COI       0.061700
     11 H32         -0.5670    -1.5090     0.3420 hc         1 COI       0.061700
     12 H4          -2.1040     0.7160    -1.0640 hc         1 COI       0.049700
     13 H51         -3.1880    -1.5640     0.6740 hc         1 COI       0.021700
     14 H52         -4.1370    -0.2200     0.0010 hc         1 COI       0.021700
     15 H53         -3.3880    -1.4050    -1.0850 hc         1 COI       0.021700
     16 H61         -2.7210     1.4710     1.2400 hc         1 COI       0.021700
     17 H62         -1.6390     0.2450     1.9340 hc         1 COI       0.021700
     18 H63         -0.9770     1.5800     0.9630 hc         1 COI       0.021700
@<TRIPOS>BOND
     1     1     2 1   
     2     1     3 1   
     3     1     4 1   
     4     4     5 2   
     5     4     6 1   
     6     6     7 1   
     7     6    10 1   
     8     6    11 1   
     9     7     8 1   
    10     7     9 1   
    11     7    12 1   
    12     8    13 1   
    13     8    14 1   
    14     8    15 1   
    15     9    16 1   
    16     9    17 1   
    17     9    18 1   
@<TRIPOS>SUBSTRUCTURE
     1 COI         1 TEMP              0 ****  ****    0 ROOT
