@<TRIPOS>MOLECULE
COL
   25    26     1     0     0
SMALL
bcc


@<TRIPOS>ATOM
      1 S1           1.1560    -0.4670    -4.3650 ss         1 COL      -0.447200
      2 C2           1.9180     0.1790    -2.8540 c6         1 COL       0.155000
      3 C3           0.9730     0.1100    -1.6980 cc         1 COL      -0.213400
      4 C4          -0.3880     0.0480    -1.7080 cd         1 COL       0.003700
      5 C5          -1.1900     0.0480    -2.9800 c6         1 COL      -0.006100
      6 C6          -0.3900     0.4630    -4.2030 c6         1 COL       0.043700
      7 S13          1.6220     0.1290    -0.0920 ss         1 COL      -0.141800
      8 C14          0.0350     0.0440     0.5810 cc         1 COL       0.171500
      9 C15         -0.9470    -0.0080    -0.3810 cd         1 COL      -0.274600
     10 C16         -2.4080    -0.1320    -0.0280 c          1 COL       0.948200
     11 O17         -2.7010    -0.0880     1.1950 o          1 COL      -0.835800
     12 O18         -3.2200    -0.2820    -0.9550 o          1 COL      -0.835800
     13 N19         -0.1830     0.0250     1.9350 ns         1 COL      -0.430100
     14 C20          0.7740     0.0610     2.8830 c          1 COL       0.505100
     15 C21          0.2320     0.0340     4.3380 c          1 COL       0.880600
     16 O22          1.0980     0.0530     5.2190 o          1 COL      -0.801800
     17 O23         -1.0050    -0.0060     4.4510 o          1 COL      -0.801800
     18 O24          1.9640     0.1100     2.6100 o          1 COL      -0.653100
     19 H21          2.2580     1.2030    -3.0330 h1         1 COL       0.044200
     20 H22A         2.8100    -0.4240    -2.6720 h1         1 COL       0.044200
     21 H51         -2.0350     0.7290    -2.8780 hc         1 COL       0.073200
     22 H52         -1.6230    -0.9420    -3.1430 hc         1 COL       0.073200
     23 H61         -0.1490     1.5280    -4.1710 h1         1 COL       0.043200
     24 H62         -0.9660     0.2850    -5.1110 h1         1 COL       0.043200
     25 H19         -1.1810    -0.0140     2.1720 hn         1 COL       0.413500
@<TRIPOS>BOND
     1     1     2 1   
     2     1     6 1   
     3     2     3 1   
     4     2    19 1   
     5     2    20 1   
     6     3     4 2   
     7     3     7 1   
     8     4     5 1   
     9     4     9 1   
    10     5     6 1   
    11     5    21 1   
    12     5    22 1   
    13     6    23 1   
    14     6    24 1   
    15     7     8 1   
    16     8     9 2   
    17     8    13 1   
    18     9    10 1   
    19    10    11 1   
    20    10    12 1   
    21    13    14 1   
    22    13    25 1   
    23    14    15 1   
    24    14    18 2   
    25    15    16 1   
    26    15    17 1   
@<TRIPOS>SUBSTRUCTURE
     1 COL         1 TEMP              0 ****  ****    0 ROOT
