@<TRIPOS>MOLECULE
COL
   25    26     1     0     0
SMALL
No Charge or Current Charge


@<TRIPOS>ATOM
      1 S1           1.0950    -0.5500    -4.4710 ss         1 COL      -0.543000
      2 C2           1.9300     0.1830    -3.0050 c6         1 COL       0.202900
      3 C3           1.0590     0.1360    -1.7720 cc         1 COL      -0.358300
      4 C4          -0.3240     0.0890    -1.7250 cd         1 COL       0.003700
      5 C5          -1.2040     0.0730    -2.9770 c6         1 COL      -0.006100
      6 C6          -0.4660     0.4040    -4.2900 c6         1 COL       0.091600
      7 S13          1.7600     0.1620    -0.1700 ss         1 COL       0.148000
      8 C14          0.1680     0.0660     0.5730 cc         1 COL       0.026600
      9 C15         -0.8490     0.0260    -0.3750 cd         1 COL      -0.274600
     10 C16         -2.3080    -0.0850     0.0130 c          1 COL       0.737600
     11 O17         -2.6160    -0.1060     1.1960 o          1 COL      -0.730500
     12 O18         -3.1590    -0.1660    -0.8570 o          1 COL      -0.730500
     13 N19         -0.0760     0.0240     1.9420 ns         1 COL      -0.363100
     14 C20          0.8070     0.0520     3.0160 c          1 COL       0.438100
     15 C21          0.0580    -0.0210     4.4650 c          1 COL       0.670000
     16 O22          0.7370    -0.0040     5.4900 o          1 COL      -0.696500
     17 O23         -1.1690    -0.0900     4.4750 o          1 COL      -0.696500
     18 O24          2.0320     0.1250     2.8800 o          1 COL      -0.653100
     19 H21          2.1890     1.2240    -3.2490 h1         1 COL       0.044200
     20 H22A         2.8700    -0.3640    -2.8430 h1         1 COL       0.044200
     21 H51         -2.0250     0.7940    -2.8790 hc         1 COL       0.073200
     22 H52         -1.6700    -0.9160    -3.0790 hc         1 COL       0.073200
     23 H61         -0.2120     1.4740    -4.3120 h1         1 COL       0.043200
     24 H62         -1.1140     0.1910    -5.1520 h1         1 COL       0.043200
     25 H19         -1.0600    -0.0370     2.2180 hn         1 COL       0.413500
@<TRIPOS>BOND
     1     1     2 1   
     2     1     6 1   
     3     2     3 1   
     4     2    19 1   
     5     2    20 1   
     6     3     4 2   
     7     3     7 1   
     8     4     5 1   
     9     4     9 1   
    10     5     6 1   
    11     5    21 1   
    12     5    22 1   
    13     6    23 1   
    14     6    24 1   
    15     7     8 1   
    16     8     9 2   
    17     8    13 1   
    18     9    10 1   
    19    10    11 1   
    20    10    12 1   
    21    13    14 1   
    22    13    25 1   
    23    14    15 1   
    24    14    18 2   
    25    15    16 1   
    26    15    17 1   
@<TRIPOS>SUBSTRUCTURE
     1 COL         1 TEMP              0 ****  ****    0 ROOT
