@<TRIPOS>MOLECULE
COP
   67    70     1     0     0
SMALL
abcg2


@<TRIPOS>ATOM
      1 C3          11.7720    28.0440    13.4460 ca         1 COP       0.440900
      2 C1          13.6690    27.3510    14.5080 ca         1 COP       0.463900
      3 C10         14.3760    28.4450    13.8870 ca         1 COP       0.034000
      4 C8          16.2510    29.6620    13.5390 ca         1 COP       0.235300
      5 C7          15.4990    30.4950    12.6810 ca         1 COP       0.107900
      6 C5          13.6190    29.2740    13.0420 ca         1 COP       0.114000
      7 C11         17.7190    29.9080    13.7950 c3         1 COP       0.196500
      8 C13         17.5420    32.0840    14.9440 ca         1 COP       0.294000
      9 C18         17.7460    33.4740    14.9020 ca         1 COP      -0.204000
     10 C17         17.2360    34.2960    15.8830 ca         1 COP      -0.027500
     11 C16         16.4790    33.7810    16.9380 ca         1 COP      -0.159600
     12 C15         16.2960    32.4010    16.9910 ca         1 COP      -0.027500
     13 C14         16.8210    31.5590    16.0250 ca         1 COP      -0.204000
     14 C19         15.9130    34.7210    17.9460 c          1 COP       0.609700
     15 C21         14.0520    35.0600    19.5420 c3         1 COP      -0.031300
     16 C24         13.5940    34.1080    20.6770 c          1 COP       0.716000
     17 C27         12.8340    35.8140    18.9810 c3         1 COP      -0.068400
     18 C28         13.1240    36.5950    17.7070 c3         1 COP      -0.108400
     19 C29         11.9850    37.5480    17.3690 c3         1 COP       0.128000
     20 N4          12.3140    29.0770    12.8180 nb         1 COP      -0.269000
     21 N3          10.4690    27.8040    13.2330 nv         1 COP      -1.071900
     22 N2          12.3890    27.1720    14.2760 nb         1 COP      -0.360000
     23 N1          14.3270    26.5280    15.3160 nv         1 COP      -1.061900
     24 N9          15.6710    28.6450    14.1290 nb         1 COP      -0.617000
     25 N6          14.2270    30.3150    12.4330 nb         1 COP      -0.108000
     26 N12         18.0630    31.2930    13.9600 nu         1 COP      -0.989200
     27 N20         14.7590    34.3370    18.5110 ns         1 COP      -0.461900
     28 O19         16.4750    35.7840    18.2030 o          1 COP      -0.616100
     29 O24         13.0740    34.6730    21.6560 o          1 COP      -0.740500
     30 O25         13.7550    32.8860    20.5030 o          1 COP      -0.740500
     31 N30         12.0430    38.1420    16.0450 ns         1 COP      -0.502900
     32 C31         12.9300    39.0370    15.5760 c          1 COP       0.664700
     33 O32         12.8670    39.4870    14.4390 o          1 COP      -0.643100
     34 C33         13.9180    39.5980    16.5570 ca         1 COP      -0.105600
     35 C38         15.2830    39.2990    16.5140 ca         1 COP      -0.089600
     36 C37         16.1340    39.9640    17.3940 ca         1 COP      -0.083000
     37 C36         15.6560    40.8990    18.3000 ca         1 COP      -0.137000
     38 C35         14.3010    41.1950    18.3320 ca         1 COP      -0.150000
     39 C34         13.4400    40.5470    17.4580 ca         1 COP      -0.122000
     40 C39         15.8520    38.2390    15.5740 c          1 COP       0.721600
     41 O40         15.0250    37.4770    15.0390 o          1 COP      -0.717000
     42 O41         17.0910    38.2190    15.4410 o          1 COP      -0.717000
     43 H7          15.9800    31.3350    12.1900 h4         1 COP       0.037100
     44 H111        18.0170    29.3150    14.6650 h1         1 COP       0.051200
     45 H112        18.3030    29.5310    12.9540 h1         1 COP       0.051200
     46 H18         18.3080    33.9040    14.0810 ha         1 COP       0.100000
     47 H17         17.4160    35.3610    15.8160 ha         1 COP       0.151500
     48 H15         15.7560    31.9480    17.8140 ha         1 COP       0.151500
     49 H14         16.6640    30.4940    16.1260 ha         1 COP       0.100000
     50 H21         14.7440    35.7930    19.9610 h1         1 COP       0.068700
     51 H271        12.0210    35.1060    18.7850 hc         1 COP       0.029200
     52 H272        12.4720    36.4840    19.7640 hc         1 COP       0.029200
     53 H281        14.0510    37.1610    17.8100 hc         1 COP       0.073200
     54 H282        13.2750    35.9040    16.8750 hc         1 COP       0.073200
     55 H291        11.0360    37.0110    17.4120 h1         1 COP       0.019200
     56 H292        11.9210    38.3280    18.1310 h1         1 COP       0.019200
     57 HN31         9.9920    27.1130    13.7850 hn         1 COP       0.497500
     58 HN32         9.9150    28.4750    12.7310 hn         1 COP       0.497500
     59 HN11        13.8520    25.7620    15.7620 hn         1 COP       0.507500
     60 HN12        15.3060    26.6670    15.4990 hn         1 COP       0.507500
     61 HN2         18.4630    31.7610    13.1650 hn         1 COP       0.473000
     62 HN0         14.3560    33.4510    18.2540 hn         1 COP       0.313500
     63 HN3         11.3730    37.8090    15.3690 hn         1 COP       0.288500
     64 H37         17.1910    39.7350    17.3660 ha         1 COP       0.130000
     65 H36         16.3390    41.3960    18.9780 ha         1 COP       0.080000
     66 H35         13.9140    41.9260    19.0300 ha         1 COP       0.077000
     67 H34         12.3830    40.7840    17.4800 ha         1 COP       0.085000
@<TRIPOS>BOND
     1     1    20 ar  
     2     1    21 1   
     3     1    22 ar  
     4     2     3 ar  
     5     2    22 ar  
     6     2    23 1   
     7     3     6 ar  
     8     3    24 ar  
     9     4     5 ar  
    10     4     7 1   
    11     4    24 ar  
    12     5    25 ar  
    13     5    43 1   
    14     6    20 ar  
    15     6    25 ar  
    16     7    26 1   
    17     7    44 1   
    18     7    45 1   
    19     8     9 ar  
    20     8    13 ar  
    21     8    26 1   
    22     9    10 ar  
    23     9    46 1   
    24    10    11 ar  
    25    10    47 1   
    26    11    12 ar  
    27    11    14 1   
    28    12    13 ar  
    29    12    48 1   
    30    13    49 1   
    31    14    27 1   
    32    14    28 2   
    33    15    16 1   
    34    15    17 1   
    35    15    27 1   
    36    15    50 1   
    37    16    29 1   
    38    16    30 1   
    39    17    18 1   
    40    17    51 1   
    41    17    52 1   
    42    18    19 1   
    43    18    53 1   
    44    18    54 1   
    45    19    31 1   
    46    19    55 1   
    47    19    56 1   
    48    21    57 1   
    49    21    58 1   
    50    23    59 1   
    51    23    60 1   
    52    26    61 1   
    53    27    62 1   
    54    31    32 1   
    55    31    63 1   
    56    32    33 2   
    57    32    34 1   
    58    34    35 ar  
    59    34    39 ar  
    60    35    36 ar  
    61    35    40 1   
    62    36    37 ar  
    63    36    64 1   
    64    37    38 ar  
    65    37    65 1   
    66    38    39 ar  
    67    38    66 1   
    68    39    67 1   
    69    40    41 1   
    70    40    42 1   
@<TRIPOS>SUBSTRUCTURE
     1 COP         1 TEMP              0 ****  ****    0 ROOT
