@<TRIPOS>MOLECULE
COP
   67    70     1     0     0
SMALL
No Charge or Current Charge


@<TRIPOS>ATOM
      1 C3          11.5370    28.4610    12.8030 ca         1 COP       0.440900
      2 C1          12.9120    27.5360    14.3220 ca         1 COP       0.463900
      3 C10         14.0210    28.2630    13.7960 ca         1 COP       0.034000
      4 C8          16.2580    28.8980    13.7430 ca         1 COP       0.235300
      5 C7          15.9800    29.7330    12.6440 ca         1 COP       0.107900
      6 C5          13.7430    29.1220    12.6840 ca         1 COP       0.114000
      7 C11         17.6810    28.7880    14.3200 c3         1 COP       0.196500
      8 C13         17.9040    31.1690    15.2910 ca         1 COP       0.294000
      9 C18         18.4530    32.4380    15.0750 ca         1 COP      -0.204000
     10 C17         18.0160    33.5420    15.8280 ca         1 COP      -0.027500
     11 C16         17.0190    33.3910    16.8180 ca         1 COP      -0.159600
     12 C15         16.4710    32.1020    17.0320 ca         1 COP      -0.027500
     13 C14         16.9150    31.0040    16.2730 ca         1 COP      -0.204000
     14 C19         16.5730    34.6040    17.6090 c          1 COP       0.609700
     15 C21         15.0090    35.4420    19.4400 c3         1 COP      -0.031300
     16 C24         14.9180    34.9340    20.9130 c          1 COP       0.716000
     17 C27         13.6220    35.8970    18.9170 c3         1 COP      -0.068400
     18 C28         13.6490    36.6280    17.5530 c3         1 COP      -0.108400
     19 C29         12.2370    37.0420    17.0890 c3         1 COP       0.128000
     20 N4          12.4800    29.1990    12.2060 nb         1 COP      -0.269000
     21 N3          10.2880    28.5660    12.3040 nv         1 COP      -1.071900
     22 N2          11.6740    27.6340    13.8360 nb         1 COP      -0.360000
     23 N1          13.0240    26.6810    15.3800 nv         1 COP      -1.061900
     24 N9          15.2790    28.1560    14.3210 nb         1 COP      -0.617000
     25 N6          14.7410    29.8440    12.1250 nb         1 COP      -0.108000
     26 N12         18.3590    30.0980    14.5230 nu         1 COP      -0.989200
     27 N20         15.6080    34.3960    18.5740 ns         1 COP      -0.461900
     28 O19         17.0460    35.7150    17.4100 o          1 COP      -0.616100
     29 O24         15.4110    35.6240    21.7940 o          1 COP      -0.740500
     30 O25         14.4450    33.8230    21.1210 o          1 COP      -0.740500
     31 N30         12.2240    37.7450    15.8030 ns         1 COP      -0.502900
     32 C31         12.7960    38.9690    15.5150 c          1 COP       0.664700
     33 O32         12.8510    39.3320    14.3480 o          1 COP      -0.643100
     34 C33         13.2280    39.8740    16.6520 ca         1 COP      -0.105600
     35 C38         14.5070    40.4950    16.6380 ca         1 COP      -0.089600
     36 C37         14.8610    41.3790    17.6820 ca         1 COP      -0.083000
     37 C36         13.9630    41.6530    18.7250 ca         1 COP      -0.137000
     38 C35         12.6960    41.0570    18.7320 ca         1 COP      -0.150000
     39 C34         12.3270    40.1820    17.6990 ca         1 COP      -0.122000
     40 C39         15.5180    40.2110    15.5480 c          1 COP       0.721600
     41 O40         15.8130    39.0470    15.3170 o          1 COP      -0.717000
     42 O41         16.0730    41.1640    15.0170 o          1 COP      -0.717000
     43 H7          16.7600    30.3260    12.1710 h4         1 COP       0.037100
     44 H111        17.6360    28.2500    15.2780 h1         1 COP       0.051200
     45 H112        18.2790    28.1680    13.6380 h1         1 COP       0.051200
     46 H18         19.2200    32.5780    14.3190 ha         1 COP       0.100000
     47 H17         18.4580    34.5190    15.6380 ha         1 COP       0.151500
     48 H15         15.7010    31.9290    17.7800 ha         1 COP       0.151500
     49 H14         16.4830    30.0260    16.4590 ha         1 COP       0.100000
     50 H21         15.6740    36.3150    19.4530 h1         1 COP       0.068700
     51 H271        12.9600    35.0240    18.8470 hc         1 COP       0.029200
     52 H272        13.1750    36.5700    19.6600 hc         1 COP       0.029200
     53 H281        14.2900    37.5130    17.6360 hc         1 COP       0.073200
     54 H282        14.0950    35.9770    16.7910 hc         1 COP       0.073200
     55 H291        11.6270    36.1360    16.9750 h1         1 COP       0.019200
     56 H292        11.7570    37.6560    17.8570 h1         1 COP       0.019200
     57 HN31         9.5200    28.2130    12.8690 hn         1 COP       0.497500
     58 HN32        10.0790    29.3470    11.6870 hn         1 COP       0.497500
     59 HN11        12.1790    26.4520    15.8950 hn         1 COP       0.507500
     60 HN12        13.8880    26.7330    15.9140 hn         1 COP       0.507500
     61 HN2         19.1290    30.3180    13.8870 hn         1 COP       0.473000
     62 HN0         15.2930    33.4450    18.7100 hn         1 COP       0.313500
     63 HN3         11.8940    37.2310    14.9960 hn         1 COP       0.288500
     64 H37         15.8420    41.8490    17.6830 ha         1 COP       0.130000
     65 H36         14.2490    42.3340    19.5230 ha         1 COP       0.080000
     66 H35         11.9930    41.2820    19.5300 ha         1 COP       0.077000
     67 H34         11.3240    39.7640    17.6960 ha         1 COP       0.085000
@<TRIPOS>BOND
     1     1    20 ar  
     2     1    21 1   
     3     1    22 ar  
     4     2     3 ar  
     5     2    22 ar  
     6     2    23 1   
     7     3     6 ar  
     8     3    24 ar  
     9     4     5 ar  
    10     4     7 1   
    11     4    24 ar  
    12     5    25 ar  
    13     5    43 1   
    14     6    20 ar  
    15     6    25 ar  
    16     7    26 1   
    17     7    44 1   
    18     7    45 1   
    19     8     9 ar  
    20     8    13 ar  
    21     8    26 1   
    22     9    10 ar  
    23     9    46 1   
    24    10    11 ar  
    25    10    47 1   
    26    11    12 ar  
    27    11    14 1   
    28    12    13 ar  
    29    12    48 1   
    30    13    49 1   
    31    14    27 1   
    32    14    28 2   
    33    15    16 1   
    34    15    17 1   
    35    15    27 1   
    36    15    50 1   
    37    16    29 1   
    38    16    30 1   
    39    17    18 1   
    40    17    51 1   
    41    17    52 1   
    42    18    19 1   
    43    18    53 1   
    44    18    54 1   
    45    19    31 1   
    46    19    55 1   
    47    19    56 1   
    48    21    57 1   
    49    21    58 1   
    50    23    59 1   
    51    23    60 1   
    52    26    61 1   
    53    27    62 1   
    54    31    32 1   
    55    31    63 1   
    56    32    33 2   
    57    32    34 1   
    58    34    35 ar  
    59    34    39 ar  
    60    35    36 ar  
    61    35    40 1   
    62    36    37 ar  
    63    36    64 1   
    64    37    38 ar  
    65    37    65 1   
    66    38    39 ar  
    67    38    66 1   
    68    39    67 1   
    69    40    41 1   
    70    40    42 1   
@<TRIPOS>SUBSTRUCTURE
     1 COP         1 TEMP              0 ****  ****    0 ROOT
