@<TRIPOS>MOLECULE
COQ
   45    47     1     0     0
SMALL
abcg2


@<TRIPOS>ATOM
      1 C2B          1.4190    -0.4150    -4.5140 ca         1 COQ       0.426900
      2 C4B         -0.2070    -1.3860    -3.2410 ca         1 COQ       0.446900
      3 C4A         -0.3580    -0.1500    -2.5170 ca         1 COQ      -0.250000
      4 C5B         -1.2320     0.0520    -1.4400 ca         1 COQ      -0.076000
      5 C6B         -1.2890     1.2880    -0.8290 ca         1 COQ       0.182000
      6 C7          -0.4430     2.2870    -1.3680 ca         1 COQ       0.118900
      7 C8A          0.4720     0.9030    -2.9430 ca         1 COQ       0.128000
      8 C9          -1.5450     2.1990     1.4130 c3         1 COQ       0.241100
      9 C1          -0.7410     1.2160     2.2300 ca         1 COQ      -0.058300
     10 C2           0.5830     0.9560     1.8950 ca         1 COQ      -0.173000
     11 C3           1.3040     0.0030     2.6090 ca         1 COQ       0.176100
     12 C4           0.7110    -0.6930     3.6630 ca         1 COQ      -0.283000
     13 C5          -0.6160    -0.4190     3.9940 ca         1 COQ       0.176100
     14 C6          -1.3400     0.5330     3.2800 ca         1 COQ      -0.173000
     15 C31          3.3730    -1.1280     2.9170 c3         1 COQ       0.149400
     16 C51         -0.5970    -2.0200     5.7510 c3         1 COQ       0.149400
     17 CN          -3.2030     0.6590     0.5080 c3         1 COQ       0.178100
     18 N1           1.3590     0.7720    -3.9470 nb         1 COQ      -0.266000
     19 N2           2.3380    -0.6040    -5.4870 nv         1 COQ      -1.060900
     20 N3           0.6720    -1.4960    -4.2130 nb         1 COQ      -0.347000
     21 N4          -0.9420    -2.4590    -2.9410 nv         1 COQ      -1.080900
     22 N8           0.3960     2.1140    -2.3530 nb         1 COQ      -0.127000
     23 N9          -2.1490     1.6050     0.2220 nh         1 COQ      -0.770400
     24 O3           2.5800    -0.1870     2.2220 os         1 COQ      -0.339600
     25 O5          -1.2710    -1.0350     4.9950 os         1 COQ      -0.339600
     26 H5          -1.8560    -0.7560    -1.0820 ha         1 COQ       0.107000
     27 H7          -0.4810     3.2890    -0.9500 h4         1 COQ       0.022100
     28 H9'1        -2.3550     2.6130     2.0170 h1         1 COQ       0.062700
     29 H9'2        -0.9180     3.0420     1.1210 h1         1 COQ       0.062700
     30 H2           1.0670     1.4920     1.0870 ha         1 COQ       0.131000
     31 H4           1.2740    -1.4280     4.2180 ha         1 COQ       0.121000
     32 H6          -2.3690     0.7360     3.5520 ha         1 COQ       0.131000
     33 H311         4.3530    -1.1130     2.4450 h1         1 COQ       0.040367
     34 H312         3.4890    -0.8670     3.9720 h1         1 COQ       0.040367
     35 H313         2.9670    -2.1400     2.8460 h1         1 COQ       0.040367
     36 H511        -1.3080    -2.3860     6.4870 h1         1 COQ       0.040367
     37 H512        -0.2710    -2.8600     5.1310 h1         1 COQ       0.040367
     38 H513         0.2710    -1.6120     6.2760 h1         1 COQ       0.040367
     39 HCN1        -3.8730     1.0950     1.2480 h1         1 COQ       0.036033
     40 HCN2        -3.7850     0.4650    -0.3940 h1         1 COQ       0.036033
     41 HCN3        -2.8550    -0.3030     0.9040 h1         1 COQ       0.036033
     42 HN21         2.2670    -1.4200    -6.0680 hn         1 COQ       0.492500
     43 HN22         2.7880     0.2020    -5.8850 hn         1 COQ       0.492500
     44 HN41        -0.8340    -3.2990    -3.4830 hn         1 COQ       0.498500
     45 HN42        -1.6860    -2.4400    -2.2680 hn         1 COQ       0.498500
@<TRIPOS>BOND
     1     1    18 ar  
     2     1    19 1   
     3     1    20 ar  
     4     2     3 ar  
     5     2    20 ar  
     6     2    21 1   
     7     3     4 ar  
     8     3     7 ar  
     9     4     5 ar  
    10     4    26 1   
    11     5     6 ar  
    12     5    23 1   
    13     6    22 ar  
    14     6    27 1   
    15     7    18 ar  
    16     7    22 ar  
    17     8     9 1   
    18     8    23 1   
    19     8    28 1   
    20     8    29 1   
    21     9    10 ar  
    22     9    14 ar  
    23    10    11 ar  
    24    10    30 1   
    25    11    12 ar  
    26    11    24 1   
    27    12    13 ar  
    28    12    31 1   
    29    13    14 ar  
    30    13    25 1   
    31    14    32 1   
    32    15    24 1   
    33    15    33 1   
    34    15    34 1   
    35    15    35 1   
    36    16    25 1   
    37    16    36 1   
    38    16    37 1   
    39    16    38 1   
    40    17    23 1   
    41    17    39 1   
    42    17    40 1   
    43    17    41 1   
    44    19    42 1   
    45    19    43 1   
    46    21    44 1   
    47    21    45 1   
@<TRIPOS>SUBSTRUCTURE
     1 COQ         1 TEMP              0 ****  ****    0 ROOT
