@<TRIPOS>MOLECULE
COQ
   45    47     1     0     0
SMALL
No Charge or Current Charge


@<TRIPOS>ATOM
      1 C2B          1.0840    -1.5400    -4.1090 ca         1 COQ       0.426900
      2 C4B         -1.0110    -1.5490    -3.2920 ca         1 COQ       0.446900
      3 C4A         -0.6840    -0.4830    -2.4270 ca         1 COQ      -0.250000
      4 C5B         -1.6140     0.0810    -1.5220 ca         1 COQ      -0.076000
      5 C6B         -1.2100     1.1410    -0.6880 ca         1 COQ       0.182000
      6 C7           0.1260     1.5810    -0.8140 ca         1 COQ       0.118900
      7 C8A          0.6430     0.0250    -2.4780 ca         1 COQ       0.128000
      8 C9          -1.6350     2.2390     1.5600 c3         1 COQ       0.241100
      9 C1          -0.6670     1.2980     2.2800 ca         1 COQ      -0.058300
     10 C2           0.6170     1.7380     2.6520 ca         1 COQ      -0.173000
     11 C3           1.5120     0.8740     3.3010 ca         1 COQ       0.176100
     12 C4           1.1250    -0.4520     3.5890 ca         1 COQ      -0.283000
     13 C5          -0.1610    -0.9000     3.2210 ca         1 COQ       0.176100
     14 C6          -1.0450    -0.0250     2.5730 ca         1 COQ      -0.173000
     15 C31          3.7530     0.5750     4.2960 c3         1 COQ       0.149400
     16 C51          0.2250    -3.1650     4.1250 c3         1 COQ       0.149400
     17 CN          -3.5710     1.7610     0.0000 c3         1 COQ       0.178100
     18 N1           1.5180    -0.5310    -3.3430 nb         1 COQ      -0.266000
     19 N2           1.9830    -2.0720    -4.9670 nv         1 COQ      -1.060900
     20 N3          -0.1310    -2.0830    -4.1380 nb         1 COQ      -0.347000
     21 N4          -2.2420    -2.1160    -3.3520 nv         1 COQ      -1.080900
     22 N8           1.0150     1.0440    -1.6740 nb         1 COQ      -0.127000
     23 N9          -2.1110     1.7350     0.2440 nh         1 COQ      -0.770400
     24 O3           2.7550     1.3720     3.6340 os         1 COQ      -0.339600
     25 O5          -0.6000    -2.1840     3.4720 os         1 COQ      -0.339600
     26 H5          -2.6260    -0.3040    -1.4500 ha         1 COQ       0.107000
     27 H7           0.5030     2.4030    -0.2100 h4         1 COQ       0.022100
     28 H9'1        -2.4900     2.4050     2.2300 h1         1 COQ       0.062700
     29 H9'2        -1.1560     3.2180     1.4210 h1         1 COQ       0.062700
     30 H2           0.9300     2.7560     2.4350 ha         1 COQ       0.131000
     31 H4           1.8120    -1.1230     4.0890 ha         1 COQ       0.121000
     32 H6          -2.0320    -0.3800     2.2870 ha         1 COQ       0.131000
     33 H311         4.6620     1.1660     4.4630 h1         1 COQ       0.040367
     34 H312         3.3900     0.2270     5.2710 h1         1 COQ       0.040367
     35 H313         4.0220    -0.2980     3.6870 h1         1 COQ       0.040367
     36 H511        -0.3180    -4.1140     4.2220 h1         1 COQ       0.040367
     37 H512         1.1380    -3.3540     3.5460 h1         1 COQ       0.040367
     38 H513         0.5070    -2.8310     5.1310 h1         1 COQ       0.040367
     39 HCN1        -4.0350     2.6190     0.5050 h1         1 COQ       0.036033
     40 HCN2        -3.7810     1.8560    -1.0730 h1         1 COQ       0.036033
     41 HCN3        -4.0390     0.8400     0.3730 h1         1 COQ       0.036033
     42 HN21         1.6340    -2.6660    -5.7140 hn         1 COQ       0.492500
     43 HN22         2.8360    -1.5530    -5.1560 hn         1 COQ       0.492500
     44 HN41        -2.4370    -2.7260    -4.1420 hn         1 COQ       0.498500
     45 HN42        -3.0330    -1.6020    -2.9770 hn         1 COQ       0.498500
@<TRIPOS>BOND
     1     1    18 ar  
     2     1    19 1   
     3     1    20 ar  
     4     2     3 ar  
     5     2    20 ar  
     6     2    21 1   
     7     3     4 ar  
     8     3     7 ar  
     9     4     5 ar  
    10     4    26 1   
    11     5     6 ar  
    12     5    23 1   
    13     6    22 ar  
    14     6    27 1   
    15     7    18 ar  
    16     7    22 ar  
    17     8     9 1   
    18     8    23 1   
    19     8    28 1   
    20     8    29 1   
    21     9    10 ar  
    22     9    14 ar  
    23    10    11 ar  
    24    10    30 1   
    25    11    12 ar  
    26    11    24 1   
    27    12    13 ar  
    28    12    31 1   
    29    13    14 ar  
    30    13    25 1   
    31    14    32 1   
    32    15    24 1   
    33    15    33 1   
    34    15    34 1   
    35    15    35 1   
    36    16    25 1   
    37    16    36 1   
    38    16    37 1   
    39    16    38 1   
    40    17    23 1   
    41    17    39 1   
    42    17    40 1   
    43    17    41 1   
    44    19    42 1   
    45    19    43 1   
    46    21    44 1   
    47    21    45 1   
@<TRIPOS>SUBSTRUCTURE
     1 COQ         1 TEMP              0 ****  ****    0 ROOT
