@<TRIPOS>MOLECULE
COR
   42    43     1     0     0
SMALL
bcc


@<TRIPOS>ATOM
      1 C1           0.6170    -1.0000    -2.5180 c3         1 COR      -0.063600
      2 C2           0.3580    -0.1550    -1.2620 c3         1 COR       0.134000
      3 N2           0.9860     1.1610    -1.3030 n8         1 COR      -0.902800
      4 C3           0.8360    -0.8890     0.0030 c3         1 COR       0.164100
      5 O3           2.2420    -0.8480     0.0880 oh         1 COR      -0.600800
      6 C4           0.1610    -0.3280     1.2650 c3         1 COR       0.134000
      7 N4          -1.2660    -0.5910     1.1770 n8         1 COR      -0.902800
      8 C5           0.8120    -0.8740     2.5510 c3         1 COR      -0.063600
      9 C1A          0.0770    -0.3540    -3.7620 ca         1 COR      -0.084800
     10 C2A          0.8910     0.4160    -4.5890 ca         1 COR      -0.129250
     11 C3A          0.3750     1.0480    -5.7140 ca         1 COR      -0.126000
     12 C4A         -0.9700     0.9190    -6.0300 ca         1 COR      -0.129000
     13 C5A         -1.7930     0.1510    -5.2150 ca         1 COR      -0.126000
     14 C6A         -1.2720    -0.4780    -4.0930 ca         1 COR      -0.129250
     15 C1B          0.1900    -0.2810     3.7830 ca         1 COR      -0.084800
     16 C2B         -0.8380    -0.9330     4.4630 ca         1 COR      -0.129250
     17 C3B         -1.4380    -0.3560     5.5760 ca         1 COR      -0.126000
     18 C4B         -1.0200     0.8880     6.0270 ca         1 COR      -0.129000
     19 C5B          0.0030     1.5500     5.3580 ca         1 COR      -0.126000
     20 C6B          0.5990     0.9690     4.2480 ca         1 COR      -0.129250
     21 H11          1.6930    -1.1680    -2.6210 hc         1 COR       0.058200
     22 H12          0.1580    -1.9830    -2.3820 hc         1 COR       0.058200
     23 H2          -0.7190    -0.0130    -1.1590 h1         1 COR       0.080200
     24 HN21         1.8090     1.1570    -1.8930 hn         1 COR       0.345300
     25 HN22         0.3600     1.8430    -1.7070 hn         1 COR       0.345300
     26 H3           0.5690    -1.9500    -0.0790 h1         1 COR       0.063700
     27 HO3          2.4880     0.0860     0.0740 ho         1 COR       0.415000
     28 H4           0.2930     0.7610     1.2550 h1         1 COR       0.080200
     29 HN41        -1.4390    -1.5810     1.3180 hn         1 COR       0.345300
     30 HN42        -1.7540    -0.1160     1.9250 hn         1 COR       0.345300
     31 H51          0.7050    -1.9640     2.5670 hc         1 COR       0.058200
     32 H52          1.8810    -0.6600     2.5430 hc         1 COR       0.058200
     33 H2A          1.9460     0.5140    -4.3600 ha         1 COR       0.128750
     34 H3A          1.0260     1.6410    -6.3440 ha         1 COR       0.130500
     35 H4A         -1.3740     1.4080    -6.9070 ha         1 COR       0.131000
     36 H5A         -2.8430     0.0390    -5.4560 ha         1 COR       0.130500
     37 H6A         -1.9220    -1.0810    -3.4690 ha         1 COR       0.128750
     38 H2B         -1.1660    -1.9090     4.1250 ha         1 COR       0.128750
     39 H3B         -2.2300    -0.8840     6.0920 ha         1 COR       0.130500
     40 H4B         -1.4860     1.3390     6.8940 ha         1 COR       0.131000
     41 H5B          0.3380     2.5200     5.7030 ha         1 COR       0.130500
     42 H6B          1.3980     1.4930     3.7350 ha         1 COR       0.128750
@<TRIPOS>BOND
     1     1     2 1   
     2     1     9 1   
     3     1    21 1   
     4     1    22 1   
     5     2     3 1   
     6     2     4 1   
     7     2    23 1   
     8     3    24 1   
     9     3    25 1   
    10     4     5 1   
    11     4     6 1   
    12     4    26 1   
    13     5    27 1   
    14     6     7 1   
    15     6     8 1   
    16     6    28 1   
    17     7    29 1   
    18     7    30 1   
    19     8    15 1   
    20     8    31 1   
    21     8    32 1   
    22     9    10 ar  
    23     9    14 ar  
    24    10    11 ar  
    25    10    33 1   
    26    11    12 ar  
    27    11    34 1   
    28    12    13 ar  
    29    12    35 1   
    30    13    14 ar  
    31    13    36 1   
    32    14    37 1   
    33    15    16 ar  
    34    15    20 ar  
    35    16    17 ar  
    36    16    38 1   
    37    17    18 ar  
    38    17    39 1   
    39    18    19 ar  
    40    18    40 1   
    41    19    20 ar  
    42    19    41 1   
    43    20    42 1   
@<TRIPOS>SUBSTRUCTURE
     1 COR         1 TEMP              0 ****  ****    0 ROOT
