@<TRIPOS>MOLECULE
COR
   42    43     1     0     0
SMALL
No Charge or Current Charge


@<TRIPOS>ATOM
      1 C1           0.5540    -1.0130    -2.5400 c3         1 COR      -0.063600
      2 C2           0.4060    -0.0910    -1.3020 c3         1 COR       0.134000
      3 N2           1.1840     1.1660    -1.5370 n8         1 COR      -1.013200
      4 C3           0.8830    -0.7900     0.0140 c3         1 COR       0.187300
      5 O3           2.2930    -0.5480     0.0510 oh         1 COR      -0.663000
      6 C4           0.2030    -0.2210     1.3120 c3         1 COR       0.134000
      7 N4          -1.2740    -0.3990     1.3030 n8         1 COR      -1.013200
      8 C5           0.7800    -0.8320     2.6190 c3         1 COR      -0.063600
      9 C1A          0.0760    -0.3640    -3.8380 ca         1 COR      -0.084800
     10 C2A          1.0020     0.0200    -4.8290 ca         1 COR      -0.111250
     11 C3A          0.5580     0.6170    -6.0220 ca         1 COR      -0.108000
     12 C4A         -0.8140     0.8320    -6.2330 ca         1 COR      -0.111000
     13 C5A         -1.7420     0.4490    -5.2500 ca         1 COR      -0.108000
     14 C6A         -1.2980    -0.1480    -4.0570 ca         1 COR      -0.111250
     15 C1B          0.1190    -0.2960     3.8890 ca         1 COR      -0.084800
     16 C2B         -0.6710    -1.1400     4.6960 ca         1 COR      -0.111250
     17 C3B         -1.2760    -0.6440     5.8640 ca         1 COR      -0.108000
     18 C4B         -1.0930     0.6980     6.2350 ca         1 COR      -0.111000
     19 C5B         -0.3030     1.5440     5.4390 ca         1 COR      -0.108000
     20 C6B          0.3020     1.0480     4.2710 ca         1 COR      -0.111250
     21 H11          1.6000    -1.3290    -2.6340 hc         1 COR       0.058200
     22 H12         -0.0200    -1.9310    -2.3650 hc         1 COR       0.058200
     23 H2          -0.6610     0.1620    -1.2150 h1         1 COR       0.080200
     24 HN21         1.0730     1.4230    -2.5270 hn         1 COR       0.400500
     25 HN22         0.7200     1.9420    -1.0480 hn         1 COR       0.400500
     26 H3           0.6710    -1.8670    -0.0420 h1         1 COR       0.063700
     27 HO3          2.3400     0.2230    -0.5780 ho         1 COR       0.454000
     28 H4           0.4030     0.8610     1.3370 h1         1 COR       0.080200
     29 HN41        -1.4910    -1.4010     1.3550 hn         1 COR       0.400500
     30 HN42        -1.6390    -0.0420     2.1950 hn         1 COR       0.400500
     31 H51          0.6920    -1.9240     2.5730 hc         1 COR       0.058200
     32 H52          1.8550    -0.6230     2.6690 hc         1 COR       0.058200
     33 H2A          2.0670    -0.1420    -4.6750 ha         1 COR       0.110750
     34 H3A          1.2780     0.9120    -6.7820 ha         1 COR       0.112500
     35 H4A         -1.1570     1.2930    -7.1560 ha         1 COR       0.113000
     36 H5A         -2.8050     0.6140    -5.4130 ha         1 COR       0.112500
     37 H6A         -2.0250    -0.4420    -3.3020 ha         1 COR       0.110750
     38 H2B         -0.8200    -2.1820     4.4180 ha         1 COR       0.110750
     39 H3B         -1.8860    -1.3000     6.4810 ha         1 COR       0.112500
     40 H4B         -1.5600     1.0820     7.1400 ha         1 COR       0.113000
     41 H5B         -0.1580     2.5830     5.7270 ha         1 COR       0.112500
     42 H6B          0.9140     1.7090     3.6620 ha         1 COR       0.110750
@<TRIPOS>BOND
     1     1     2 1   
     2     1     9 1   
     3     1    21 1   
     4     1    22 1   
     5     2     3 1   
     6     2     4 1   
     7     2    23 1   
     8     3    24 1   
     9     3    25 1   
    10     4     5 1   
    11     4     6 1   
    12     4    26 1   
    13     5    27 1   
    14     6     7 1   
    15     6     8 1   
    16     6    28 1   
    17     7    29 1   
    18     7    30 1   
    19     8    15 1   
    20     8    31 1   
    21     8    32 1   
    22     9    10 ar  
    23     9    14 ar  
    24    10    11 ar  
    25    10    33 1   
    26    11    12 ar  
    27    11    34 1   
    28    12    13 ar  
    29    12    35 1   
    30    13    14 ar  
    31    13    36 1   
    32    14    37 1   
    33    15    16 ar  
    34    15    20 ar  
    35    16    17 ar  
    36    16    38 1   
    37    17    18 ar  
    38    17    39 1   
    39    18    19 ar  
    40    18    40 1   
    41    19    20 ar  
    42    19    41 1   
    43    20    42 1   
@<TRIPOS>SUBSTRUCTURE
     1 COR         1 TEMP              0 ****  ****    0 ROOT
