@<TRIPOS>MOLECULE
COU
   17    18     1     0     0
SMALL
bcc


@<TRIPOS>ATOM
      1 C1          -2.0950     0.2590     0.0140 c          1 COU       0.745800
      2 C2          -1.8720    -1.1730     0.0110 cc         1 COU      -0.272200
      3 C3          -0.6260    -1.6790     0.0100 cd         1 COU      -0.018200
      4 C4           0.5150    -0.8090     0.0120 ca         1 COU      -0.159800
      5 C5           1.8380    -1.2640     0.0120 ca         1 COU      -0.069000
      6 C6           2.8840    -0.3640     0.0130 ca         1 COU      -0.156000
      7 C7           2.6180     1.0060     0.0140 ca         1 COU      -0.081000
      8 C8           1.3180     1.4810     0.0130 ca         1 COU      -0.149000
      9 C9           0.2750     0.5650     0.0130 ca         1 COU       0.172100
     10 O1          -3.1690     0.8070     0.0160 o          1 COU      -0.557500
     11 O2          -0.9900     1.0490     0.0130 os         1 COU      -0.337200
     12 H2          -2.7460    -1.8080     0.0110 ha         1 COU       0.164000
     13 H3          -0.4700    -2.7510     0.0090 ha         1 COU       0.142000
     14 H5           2.0250    -2.3300     0.0110 ha         1 COU       0.137000
     15 H6           3.9050    -0.7170     0.0150 ha         1 COU       0.140000
     16 H7           3.4370     1.7130     0.0150 ha         1 COU       0.139000
     17 H8           1.1120     2.5430     0.0120 ha         1 COU       0.158000
@<TRIPOS>BOND
     1     1     2 1   
     2     1    10 2   
     3     1    11 1   
     4     2     3 2   
     5     2    12 1   
     6     3     4 1   
     7     3    13 1   
     8     4     5 ar  
     9     4     9 ar  
    10     5     6 ar  
    11     5    14 1   
    12     6     7 ar  
    13     6    15 1   
    14     7     8 ar  
    15     7    16 1   
    16     8     9 ar  
    17     8    17 1   
    18     9    11 1   
@<TRIPOS>SUBSTRUCTURE
     1 COU         1 TEMP              0 ****  ****    0 ROOT
