@<TRIPOS>MOLECULE
COU
   17    18     1     0     0
SMALL
No Charge or Current Charge


@<TRIPOS>ATOM
      1 C1          -2.1370     0.2740     0.0130 c          1 COU       0.670300
      2 C2          -1.8960    -1.1790     0.0120 cc         1 COU      -0.322200
      3 C3          -0.6250    -1.7040     0.0110 cd         1 COU      -0.068200
      4 C4           0.5150    -0.7940     0.0120 ca         1 COU      -0.159800
      5 C5           1.8380    -1.2720     0.0120 ca         1 COU      -0.051000
      6 C6           2.9110    -0.3630     0.0130 ca         1 COU      -0.138000
      7 C7           2.6650     1.0220     0.0140 ca         1 COU      -0.063000
      8 C8           1.3420     1.4980     0.0140 ca         1 COU      -0.131000
      9 C9           0.2700     0.5920     0.0130 ca         1 COU       0.172100
     10 O1          -3.2630     0.7490     0.0130 o          1 COU      -0.482000
     11 O2          -1.0190     1.0720     0.0130 os         1 COU      -0.337200
     12 H2          -2.7830    -1.8020     0.0110 ha         1 COU       0.214000
     13 H3          -0.4760    -2.7830     0.0100 ha         1 COU       0.192000
     14 H5           2.0370    -2.3420     0.0110 ha         1 COU       0.119000
     15 H6           3.9350    -0.7320     0.0120 ha         1 COU       0.122000
     16 H7           3.4970     1.7240     0.0140 ha         1 COU       0.121000
     17 H8           1.1470     2.5680     0.0150 ha         1 COU       0.140000
@<TRIPOS>BOND
     1     1     2 1   
     2     1    10 2   
     3     1    11 1   
     4     2     3 2   
     5     2    12 1   
     6     3     4 1   
     7     3    13 1   
     8     4     5 ar  
     9     4     9 ar  
    10     5     6 ar  
    11     5    14 1   
    12     6     7 ar  
    13     6    15 1   
    14     7     8 ar  
    15     7    16 1   
    16     8     9 ar  
    17     8    17 1   
    18     9    11 1   
@<TRIPOS>SUBSTRUCTURE
     1 COU         1 TEMP              0 ****  ****    0 ROOT
