@<TRIPOS>MOLECULE
COV
   76    79     1     0     0
SMALL
bcc


@<TRIPOS>ATOM
      1 C1          -5.8070    -2.3340    -0.8170 c6         1 COV       0.188300
      2 C20          3.1830     1.0490     0.4210 c5         1 COV       0.171800
      3 C2          -7.2220    -2.0590    -0.3290 c6         1 COV      -0.065400
      4 C25          7.3000    -1.7470     0.0130 c3         1 COV       0.161800
      5 C26          8.2030    -2.3650    -1.0560 c3         1 COV      -0.122600
      6 C27          8.1510    -0.9530     1.0020 c3         1 COV      -0.122600
      7 C3          -7.2650    -0.9240     0.6830 c6         1 COV       0.153100
      8 C4          -6.6550     0.3420     0.0790 c6         1 COV      -0.072200
      9 C5          -5.2670     0.0960    -0.4500 ce         1 COV      -0.068200
     10 C6          -4.2370     0.8920    -0.1150 cf         1 COV      -0.111000
     11 C7          -2.8490     0.7160    -0.4980 cf         1 COV      -0.144000
     12 C8          -1.8690     1.6250    -0.3640 c2         1 COV      -0.076400
     13 C9          -2.0470     3.0340     0.1340 c6         1 COV      -0.042200
     14 C10         -5.1690    -1.0710    -1.3470 ce         1 COV      -0.124200
     15 C11         -1.0240     3.4050     1.2110 c6         1 COV      -0.070400
     16 C12          0.4130     3.0620     0.8160 c6         1 COV      -0.064400
     17 C13          0.5550     1.5990     0.3860 c5         1 COV      -0.028000
     18 C14         -0.4540     1.3570    -0.7660 c5         1 COV      -0.038500
     19 C15         -0.0490     0.0060    -1.3330 c5         1 COV      -0.070400
     20 C16          1.4880     0.0200    -1.2340 c5         1 COV      -0.073400
     21 C17          1.8690     1.2400    -0.3540 c5         1 COV      -0.049700
     22 C18          0.2720     0.6630     1.5630 c3         1 COV      -0.073100
     23 C19         -4.6020    -1.0380    -2.5520 c2         1 COV      -0.196000
     24 O3          -8.6170    -0.7280     1.0460 oh         1 COV      -0.600800
     25 C21          3.4980     2.2320     1.3370 c3         1 COV      -0.099100
     26 C22          4.3570     0.8190    -0.5450 c5         1 COV      -0.111400
     27 C23          5.2910    -0.1030     0.2340 c5         1 COV      -0.090700
     28 C24          6.2550    -0.8600    -0.6690 c3         1 COV      -0.052400
     29 C28          4.2740    -0.9580     0.9830 c5         1 COV       0.141400
     30 O1          -5.0650    -2.8360     0.2800 oh         1 COV      -0.593800
     31 O21          3.1440    -0.1340     1.2210 os         1 COV      -0.418600
     32 O25          6.5880    -2.7740     0.6900 oh         1 COV      -0.598800
     33 H1          -5.8510    -3.0760    -1.6260 h1         1 COV       0.036700
     34 H2          -7.8370    -1.7920    -1.1950 hc         1 COV       0.061700
     35 H2A         -7.6480    -2.9710     0.0980 hc         1 COV       0.061700
     36 H26          8.9360    -3.0380    -0.6040 hc         1 COV       0.041200
     37 H26A         7.6200    -2.9370    -1.7800 hc         1 COV       0.041200
     38 H26B         8.7550    -1.5980    -1.6000 hc         1 COV       0.041200
     39 H27          8.6320    -0.1030     0.5150 hc         1 COV       0.041200
     40 H27A         7.5580    -0.5740     1.8350 hc         1 COV       0.041200
     41 H27B         8.9440    -1.5800     1.4190 hc         1 COV       0.041200
     42 H3          -6.6730    -1.2080     1.5630 h1         1 COV       0.050700
     43 H4          -7.3040     0.6660    -0.7450 hc         1 COV       0.051200
     44 H4A         -6.6420     1.1460     0.8190 hc         1 COV       0.051200
     45 H6          -4.4680     1.7300     0.5360 ha         1 COV       0.119000
     46 H7          -2.5890    -0.2460    -0.9280 ha         1 COV       0.125000
     47 H9          -1.9120     3.7080    -0.7220 hc         1 COV       0.044700
     48 H9A         -3.0570     3.2180     0.5030 hc         1 COV       0.044700
     49 H11         -1.0980     4.4750     1.4200 hc         1 COV       0.040700
     50 H11A        -1.2860     2.8990     2.1440 hc         1 COV       0.040700
     51 H12          0.7230     3.7040    -0.0170 hc         1 COV       0.038700
     52 H12A         1.0750     3.3030     1.6490 hc         1 COV       0.038700
     53 H14         -0.2090     2.1140    -1.5280 hc         1 COV       0.049700
     54 H15         -0.4680    -0.8110    -0.7410 hc         1 COV       0.043700
     55 H15A        -0.4010    -0.1370    -2.3570 hc         1 COV       0.043700
     56 H16          1.8550    -0.9120    -0.8010 hc         1 COV       0.044700
     57 H16A         1.9390     0.1020    -2.2240 hc         1 COV       0.044700
     58 H17          2.0620     2.0830    -1.0310 hc         1 COV       0.040700
     59 H18         -0.7560     0.7680     1.9130 hc         1 COV       0.038700
     60 H18A         0.4210    -0.3860     1.3090 hc         1 COV       0.038700
     61 H18B         0.9280     0.8840     2.4050 hc         1 COV       0.038700
     62 H19         -4.5760    -1.9200    -3.1820 ha         1 COV       0.118000
     63 H19A        -4.1630    -0.1350    -2.9560 ha         1 COV       0.118000
     64 HO3         -8.6460    -0.0840     1.7600 ho         1 COV       0.402000
     65 H21          2.8210     2.2720     2.1890 hc         1 COV       0.039700
     66 H21A         4.5140     2.1540     1.7310 hc         1 COV       0.039700
     67 H21B         3.4250     3.1790     0.8020 hc         1 COV       0.039700
     68 H22          4.0270     0.3120    -1.4560 hc         1 COV       0.052700
     69 H22A         4.8300     1.7550    -0.8470 hc         1 COV       0.052700
     70 H23          5.8600     0.4970     0.9520 hc         1 COV       0.055700
     71 H24          6.7920    -0.1330    -1.2850 hc         1 COV       0.047700
     72 H24A         5.6740    -1.4770    -1.3670 hc         1 COV       0.047700
     73 H28          3.9850    -1.8260     0.3750 h1         1 COV       0.050700
     74 H28A         4.6470    -1.3340     1.9380 h1         1 COV       0.050700
     75 HO1         -4.1550    -2.9620    -0.0060 ho         1 COV       0.405000
     76 HO25         7.2240    -3.3200     1.1620 ho         1 COV       0.401000
@<TRIPOS>BOND
     1     1     3 1   
     2     1    14 1   
     3     1    30 1   
     4     1    33 1   
     5     2    21 1   
     6     2    25 1   
     7     2    26 1   
     8     2    31 1   
     9     3     7 1   
    10     3    34 1   
    11     3    35 1   
    12     4     5 1   
    13     4     6 1   
    14     4    28 1   
    15     4    32 1   
    16     5    36 1   
    17     5    37 1   
    18     5    38 1   
    19     6    39 1   
    20     6    40 1   
    21     6    41 1   
    22     7     8 1   
    23     7    24 1   
    24     7    42 1   
    25     8     9 1   
    26     8    43 1   
    27     8    44 1   
    28     9    10 2   
    29     9    14 1   
    30    10    11 1   
    31    10    45 1   
    32    11    12 2   
    33    11    46 1   
    34    12    13 1   
    35    12    18 1   
    36    13    15 1   
    37    13    47 1   
    38    13    48 1   
    39    14    23 2   
    40    15    16 1   
    41    15    49 1   
    42    15    50 1   
    43    16    17 1   
    44    16    51 1   
    45    16    52 1   
    46    17    18 1   
    47    17    21 1   
    48    17    22 1   
    49    18    19 1   
    50    18    53 1   
    51    19    20 1   
    52    19    54 1   
    53    19    55 1   
    54    20    21 1   
    55    20    56 1   
    56    20    57 1   
    57    21    58 1   
    58    22    59 1   
    59    22    60 1   
    60    22    61 1   
    61    23    62 1   
    62    23    63 1   
    63    24    64 1   
    64    25    65 1   
    65    25    66 1   
    66    25    67 1   
    67    26    27 1   
    68    26    68 1   
    69    26    69 1   
    70    27    28 1   
    71    27    29 1   
    72    27    70 1   
    73    28    71 1   
    74    28    72 1   
    75    29    31 1   
    76    29    73 1   
    77    29    74 1   
    78    30    75 1   
    79    32    76 1   
@<TRIPOS>SUBSTRUCTURE
     1 COV         1 TEMP              0 ****  ****    0 ROOT
