@<TRIPOS>MOLECULE
COV
   76    79     1     0     0
SMALL
No Charge or Current Charge


@<TRIPOS>ATOM
      1 C1          -5.7910    -2.4190    -0.7120 c6         1 COV       0.211500
      2 C20          3.2000     1.1150     0.3880 c5         1 COV       0.195000
      3 C2          -7.2340    -2.1660    -0.2110 c6         1 COV      -0.065400
      4 C25          7.3440    -1.7890     0.0150 c3         1 COV       0.185000
      5 C26          8.3890    -2.3190    -0.9940 c3         1 COV      -0.122600
      6 C27          8.0560    -1.1780     1.2440 c3         1 COV      -0.122600
      7 C3          -7.3130    -0.9420     0.7340 c6         1 COV       0.176300
      8 C4          -6.7300     0.3170     0.0450 c6         1 COV      -0.072200
      9 C5          -5.2990     0.0630    -0.4480 ce         1 COV      -0.068200
     10 C6          -4.2880     0.9300    -0.1450 cf         1 COV      -0.161000
     11 C7          -2.8840     0.7830    -0.5410 cf         1 COV      -0.194000
     12 C8          -1.8840     1.7000    -0.4110 c2         1 COV      -0.076400
     13 C9          -2.0810     3.1200     0.1390 c6         1 COV      -0.042200
     14 C10         -5.1790    -1.1380    -1.2990 ce         1 COV      -0.124200
     15 C11         -1.0520     3.4680     1.2470 c6         1 COV      -0.070400
     16 C12          0.4070     3.1230     0.8330 c6         1 COV      -0.064400
     17 C13          0.5490     1.6450     0.3350 c5         1 COV      -0.028000
     18 C14         -0.4360     1.4500    -0.8720 c5         1 COV      -0.038500
     19 C15         -0.0880     0.0150    -1.3630 c5         1 COV      -0.070400
     20 C16          1.4730    -0.0150    -1.2650 c5         1 COV      -0.073400
     21 C17          1.8660     1.3120    -0.4900 c5         1 COV      -0.049700
     22 C18          0.2750     0.6840     1.5460 c3         1 COV      -0.073100
     23 C19         -4.6150    -1.1200    -2.5280 c2         1 COV      -0.296000
     24 O3          -8.6740    -0.7080     1.1160 oh         1 COV      -0.663000
     25 C21          3.5430     2.2800     1.3540 c3         1 COV      -0.099100
     26 C22          4.3700     0.8700    -0.6340 c5         1 COV      -0.111400
     27 C23          5.3010    -0.0730     0.1740 c5         1 COV      -0.090700
     28 C24          6.3910    -0.7720    -0.6910 c3         1 COV      -0.052400
     29 C28          4.2180    -0.9950     0.7870 c5         1 COV       0.164600
     30 O1          -4.9610    -2.8900     0.3510 oh         1 COV      -0.656000
     31 O21          3.1390    -0.1070     1.1690 os         1 COV      -0.465000
     32 O25          6.5850    -2.9140     0.4590 oh         1 COV      -0.661000
     33 H1          -5.8380    -3.1850    -1.5010 h1         1 COV       0.036700
     34 H2          -7.8870    -2.0000    -1.0790 hc         1 COV       0.061700
     35 H2A         -7.6150    -3.0620     0.2970 hc         1 COV       0.061700
     36 H26          9.0470    -3.0640    -0.5290 hc         1 COV       0.041200
     37 H26A         7.8990    -2.7910    -1.8550 hc         1 COV       0.041200
     38 H26B         9.0160    -1.5010    -1.3680 hc         1 COV       0.041200
     39 H27          8.5940    -0.2650     0.9650 hc         1 COV       0.041200
     40 H27A         7.3400    -0.9260     2.0360 hc         1 COV       0.041200
     41 H27B         8.7820    -1.8820     1.6680 hc         1 COV       0.041200
     42 H3          -6.7070    -1.1570     1.6280 h1         1 COV       0.050700
     43 H4          -7.3590     0.6010    -0.8100 hc         1 COV       0.051200
     44 H4A         -6.7550     1.1650     0.7430 hc         1 COV       0.051200
     45 H6          -4.5500     1.7880     0.4700 ha         1 COV       0.169000
     46 H7          -2.6470    -0.1810    -0.9860 ha         1 COV       0.175000
     47 H9          -1.9610     3.8310    -0.6900 hc         1 COV       0.044700
     48 H9A         -3.0890     3.2930     0.5280 hc         1 COV       0.044700
     49 H11         -1.1220     4.5380     1.4870 hc         1 COV       0.040700
     50 H11A        -1.3170     2.9390     2.1710 hc         1 COV       0.040700
     51 H12          0.7270     3.8170     0.0430 hc         1 COV       0.038700
     52 H12A         1.0570     3.3150     1.6930 hc         1 COV       0.038700
     53 H14         -0.2170     2.1660    -1.6760 hc         1 COV       0.049700
     54 H15         -0.5210    -0.7660    -0.7300 hc         1 COV       0.043700
     55 H15A        -0.4430    -0.1680    -2.3840 hc         1 COV       0.043700
     56 H16          1.7900    -0.9330    -0.7620 hc         1 COV       0.044700
     57 H16A         1.9230    -0.0370    -2.2640 hc         1 COV       0.044700
     58 H17          2.0500     2.1130    -1.2170 hc         1 COV       0.040700
     59 H18         -0.7680     0.7230     1.8780 hc         1 COV       0.038700
     60 H18A         0.4870    -0.3640     1.3140 hc         1 COV       0.038700
     61 H18B         0.8950     0.9470     2.4110 hc         1 COV       0.038700
     62 H19         -4.5530    -2.0140    -3.1480 ha         1 COV       0.168000
     63 H19A        -4.2070    -0.2040    -2.9540 ha         1 COV       0.168000
     64 HO3         -8.6610     0.0270     1.7680 ho         1 COV       0.441000
     65 H21          2.9130     2.2570     2.2490 hc         1 COV       0.039700
     66 H21A         4.5800     2.2330     1.7040 hc         1 COV       0.039700
     67 H21B         3.4130     3.2500     0.8620 hc         1 COV       0.039700
     68 H22          4.0530     0.3940    -1.5660 hc         1 COV       0.052700
     69 H22A         4.8730     1.8010    -0.9200 hc         1 COV       0.052700
     70 H23          5.8200     0.4820     0.9630 hc         1 COV       0.055700
     71 H24          7.0130     0.0080    -1.1490 hc         1 COV       0.047700
     72 H24A         5.9040    -1.2850    -1.5290 hc         1 COV       0.047700
     73 H28          3.8410    -1.7160     0.0490 h1         1 COV       0.050700
     74 H28A         4.5730    -1.5480     1.6660 h1         1 COV       0.050700
     75 HO1         -4.0390    -2.7410     0.0490 ho         1 COV       0.444000
     76 HO25         7.2220    -3.5470     0.8530 ho         1 COV       0.440000
@<TRIPOS>BOND
     1     1     3 1   
     2     1    14 1   
     3     1    30 1   
     4     1    33 1   
     5     2    21 1   
     6     2    25 1   
     7     2    26 1   
     8     2    31 1   
     9     3     7 1   
    10     3    34 1   
    11     3    35 1   
    12     4     5 1   
    13     4     6 1   
    14     4    28 1   
    15     4    32 1   
    16     5    36 1   
    17     5    37 1   
    18     5    38 1   
    19     6    39 1   
    20     6    40 1   
    21     6    41 1   
    22     7     8 1   
    23     7    24 1   
    24     7    42 1   
    25     8     9 1   
    26     8    43 1   
    27     8    44 1   
    28     9    10 2   
    29     9    14 1   
    30    10    11 1   
    31    10    45 1   
    32    11    12 2   
    33    11    46 1   
    34    12    13 1   
    35    12    18 1   
    36    13    15 1   
    37    13    47 1   
    38    13    48 1   
    39    14    23 2   
    40    15    16 1   
    41    15    49 1   
    42    15    50 1   
    43    16    17 1   
    44    16    51 1   
    45    16    52 1   
    46    17    18 1   
    47    17    21 1   
    48    17    22 1   
    49    18    19 1   
    50    18    53 1   
    51    19    20 1   
    52    19    54 1   
    53    19    55 1   
    54    20    21 1   
    55    20    56 1   
    56    20    57 1   
    57    21    58 1   
    58    22    59 1   
    59    22    60 1   
    60    22    61 1   
    61    23    62 1   
    62    23    63 1   
    63    24    64 1   
    64    25    65 1   
    65    25    66 1   
    66    25    67 1   
    67    26    27 1   
    68    26    68 1   
    69    26    69 1   
    70    27    28 1   
    71    27    29 1   
    72    27    70 1   
    73    28    71 1   
    74    28    72 1   
    75    29    31 1   
    76    29    73 1   
    77    29    74 1   
    78    30    75 1   
    79    32    76 1   
@<TRIPOS>SUBSTRUCTURE
     1 COV         1 TEMP              0 ****  ****    0 ROOT
