@<TRIPOS>MOLECULE
COX
   36    38     1     0     0
SMALL
No Charge or Current Charge


@<TRIPOS>ATOM
      1 S1          -4.3290    -0.2990     0.1410 sy         1 COX       1.144600
      2 O1          -4.9690     0.0400     1.4120 o          1 COX      -0.529000
      3 O2          -4.4820    -1.5990    -0.5080 o          1 COX      -0.529000
      4 N1          -4.9410     0.7570    -0.9460 n8         1 COX      -0.999100
      5 C1          -2.6000     0.1800     0.1560 ca         1 COX      -0.321500
      6 C2          -1.6740    -0.4600    -0.6920 ca         1 COX      -0.016500
      7 C3          -0.3220    -0.0780    -0.6730 ca         1 COX      -0.123000
      8 C4           0.1310     0.9430     0.1880 ca         1 COX       0.058000
      9 C5          -0.8040     1.5800     1.0290 ca         1 COX      -0.123000
     10 C6          -2.1580     1.2040     1.0180 ca         1 COX      -0.016500
     11 C7           1.5480     1.3370     0.1890 cc         1 COX      -0.193000
     12 C8           1.9250     2.6480     0.1380 cd         1 COX       0.209300
     13 C9           1.1360     3.9310     0.1710 c3         1 COX      -0.141400
     14 O3           3.2660     2.7330    -0.1120 os         1 COX      -0.064700
     15 N2           3.7830     1.4080    -0.2860 nd         1 COX      -0.352300
     16 C10          2.7320     0.6150    -0.1240 cc         1 COX       0.350500
     17 C11          2.8950    -0.8540    -0.1270 ca         1 COX      -0.151500
     18 C12          4.0210    -1.4440    -0.7510 ca         1 COX      -0.078500
     19 C13          4.2130    -2.8360    -0.7260 ca         1 COX      -0.115000
     20 C14          3.2990    -3.6620    -0.0540 ca         1 COX      -0.093000
     21 C15          2.2020    -3.0910     0.6070 ca         1 COX      -0.115000
     22 C16          2.0080    -1.6990     0.5820 ca         1 COX      -0.078500
     23 HN11        -5.3750     0.1190    -1.6080 hn         1 COX       0.476000
     24 HN12        -4.1010     1.0730    -1.4250 hn         1 COX       0.476000
     25 H2          -1.9930    -1.2510    -1.3700 ha         1 COX       0.137000
     26 H3           0.3720    -0.5690    -1.3500 ha         1 COX       0.125500
     27 H5          -0.4820     2.3520     1.7210 ha         1 COX       0.125500
     28 H6          -2.8570     1.7080     1.6840 ha         1 COX       0.137000
     29 H91          1.6990     4.7500    -0.2930 hc         1 COX       0.066367
     30 H92          0.1910     3.8320    -0.3760 hc         1 COX       0.066367
     31 H93          0.9100     4.2270     1.2020 hc         1 COX       0.066367
     32 H12          4.7460    -0.8270    -1.2780 ha         1 COX       0.124000
     33 H13          5.0740    -3.2740    -1.2260 ha         1 COX       0.119000
     34 H14          3.4500    -4.7400    -0.0320 ha         1 COX       0.116000
     35 H15          1.5060    -3.7250     1.1510 ha         1 COX       0.119000
     36 H16          1.1760    -1.2850     1.1450 ha         1 COX       0.124000
@<TRIPOS>BOND
     1     1     2 2   
     2     1     3 2   
     3     1     4 1   
     4     1     5 1   
     5     4    23 1   
     6     4    24 1   
     7     5     6 ar  
     8     5    10 ar  
     9     6     7 ar  
    10     6    25 1   
    11     7     8 ar  
    12     7    26 1   
    13     8     9 ar  
    14     8    11 1   
    15     9    10 ar  
    16     9    27 1   
    17    10    28 1   
    18    11    12 2   
    19    11    16 1   
    20    12    13 1   
    21    12    14 1   
    22    13    29 1   
    23    13    30 1   
    24    13    31 1   
    25    14    15 1   
    26    15    16 2   
    27    16    17 1   
    28    17    18 ar  
    29    17    22 ar  
    30    18    19 ar  
    31    18    32 1   
    32    19    20 ar  
    33    19    33 1   
    34    20    21 ar  
    35    20    34 1   
    36    21    22 ar  
    37    21    35 1   
    38    22    36 1   
@<TRIPOS>SUBSTRUCTURE
     1 COX         1 TEMP              0 ****  ****    0 ROOT
