@<TRIPOS>MOLECULE
COX
   36    38     1     0     0
SMALL
bcc


@<TRIPOS>ATOM
      1 S1          -4.2190    -0.4400     0.0510 sy         1 COX       1.286200
      2 O1          -4.7950    -0.1510     1.3530 o          1 COX      -0.599800
      3 O2          -4.2580    -1.7900    -0.4840 o          1 COX      -0.599800
      4 N1          -5.0130     0.5100    -1.0290 n8         1 COX      -0.888700
      5 C1          -2.5250     0.0840     0.0770 ca         1 COX      -0.321500
      6 C2          -1.6240    -0.4700    -0.8250 ca         1 COX      -0.034500
      7 C3          -0.3100    -0.0390    -0.8200 ca         1 COX      -0.141000
      8 C4           0.1200     0.9340     0.0840 ca         1 COX       0.058000
      9 C5          -0.7990     1.4680     0.9870 ca         1 COX      -0.141000
     10 C6          -2.1210     1.0520     0.9840 ca         1 COX      -0.034500
     11 C7           1.5100     1.3910     0.0770 cc         1 COX      -0.323600
     12 C8           1.9630     2.6750     0.0700 cd         1 COX       0.319000
     13 C9           1.2770     3.9860     0.0900 c3         1 COX      -0.141400
     14 O3           3.2940     2.6680     0.0100 os         1 COX      -0.109100
     15 N2           3.7570     1.3890    -0.0170 nd         1 COX      -0.352300
     16 C10          2.7090     0.6170     0.0160 cc         1 COX       0.415800
     17 C11          2.8630    -0.8420     0.0040 ca         1 COX      -0.151500
     18 C12          3.8120    -1.4420    -0.8220 ca         1 COX      -0.096500
     19 C13          3.9680    -2.8200    -0.8210 ca         1 COX      -0.133000
     20 C14          3.1800    -3.6100     0.0050 ca         1 COX      -0.111000
     21 C15          2.2360    -3.0180     0.8330 ca         1 COX      -0.133000
     22 C16          2.0760    -1.6400     0.8330 ca         1 COX      -0.096500
     23 HN11        -4.7120     0.3860    -1.9880 hn         1 COX       0.420800
     24 HN12        -5.0330     1.4910    -0.7730 hn         1 COX       0.420800
     25 H2          -1.9330    -1.2300    -1.5290 ha         1 COX       0.155000
     26 H3           0.3850    -0.4650    -1.5310 ha         1 COX       0.143500
     27 H5          -0.4810     2.1990     1.7180 ha         1 COX       0.143500
     28 H6          -2.8150     1.4770     1.6960 ha         1 COX       0.155000
     29 H91          1.7420     4.6840    -0.6060 hc         1 COX       0.066367
     30 H92          0.2320     3.8670    -0.1860 hc         1 COX       0.066367
     31 H93          1.3130     4.4320     1.0860 hc         1 COX       0.066367
     32 H12          4.4200    -0.8290    -1.4760 ha         1 COX       0.142000
     33 H13          4.7040    -3.2780    -1.4690 ha         1 COX       0.137000
     34 H14          3.3020    -4.6860     0.0040 ha         1 COX       0.134000
     35 H15          1.6240    -3.6280     1.4840 ha         1 COX       0.137000
     36 H16          1.3460    -1.1870     1.4910 ha         1 COX       0.142000
@<TRIPOS>BOND
     1     1     2 2   
     2     1     3 2   
     3     1     4 1   
     4     1     5 1   
     5     4    23 1   
     6     4    24 1   
     7     5     6 ar  
     8     5    10 ar  
     9     6     7 ar  
    10     6    25 1   
    11     7     8 ar  
    12     7    26 1   
    13     8     9 ar  
    14     8    11 1   
    15     9    10 ar  
    16     9    27 1   
    17    10    28 1   
    18    11    12 2   
    19    11    16 1   
    20    12    13 1   
    21    12    14 1   
    22    13    29 1   
    23    13    30 1   
    24    13    31 1   
    25    14    15 1   
    26    15    16 2   
    27    16    17 1   
    28    17    18 ar  
    29    17    22 ar  
    30    18    19 ar  
    31    18    32 1   
    32    19    20 ar  
    33    19    33 1   
    34    20    21 ar  
    35    20    34 1   
    36    21    22 ar  
    37    21    35 1   
    38    22    36 1   
@<TRIPOS>SUBSTRUCTURE
     1 COX         1 TEMP              0 ****  ****    0 ROOT
