@<TRIPOS>MOLECULE
COZ
   80    82     1     0     0
SMALL
abcg2


@<TRIPOS>ATOM
      1 N1A         19.4800    -7.2880    12.9200 nb         1 COZ      -0.341000
      2 C2A         18.8830    -7.7110    14.0400 ca         1 COZ       0.100900
      3 N3A         18.1090    -8.7810    14.2090 nb         1 COZ      -0.135000
      4 C4A         17.9570    -9.4770    13.0770 ca         1 COZ       0.104500
      5 C5A         18.5340    -9.1640    11.8450 ca         1 COZ      -0.081600
      6 C6A         19.3250    -8.0030    11.7900 ca         1 COZ       0.383900
      7 N6A         19.9380    -7.5890    10.6650 nv         1 COZ      -1.093900
      8 N7A         18.1690   -10.1010    10.8960 nc         1 COZ      -0.671100
      9 C8A         17.3920   -10.9500    11.5370 cd         1 COZ       0.499700
     10 N9A         17.2240   -10.6240    12.8560 na         1 COZ      -0.255300
     11 C1B         16.3210   -11.2870    13.7980 c5         1 COZ       0.273300
     12 C2B         14.9020   -10.6790    13.8130 c5         1 COZ       0.134300
     13 O2B         14.7730    -9.5780    14.6670 oh         1 COZ      -0.835000
     14 C3B         14.0590   -11.9170    14.1520 c5         1 COZ       0.185300
     15 O3B         14.1500   -12.2490    15.5260 os         1 COZ      -0.593400
     16 P3B         12.9390   -11.7190    16.5690 p5         1 COZ       1.299900
     17 O7A         13.4200   -12.2350    17.9090 o          1 COZ      -0.909833
     18 O8A         12.9850   -10.1850    16.4270 o          1 COZ      -0.909833
     19 O9A         11.6440   -12.3210    16.0540 o          1 COZ      -0.909833
     20 C4B         14.7700   -12.9910    13.3350 c5         1 COZ       0.129300
     21 O4B         16.1790   -12.6350    13.4010 os         1 COZ      -0.461000
     22 C5B         14.2680   -13.0820    11.9060 c3         1 COZ       0.207600
     23 O5B         14.7220   -14.2840    11.2730 os         1 COZ      -0.629400
     24 P1A         15.5590   -14.2800     9.8800 p5         1 COZ       1.526800
     25 O1A         16.9350   -13.7360    10.1000 o          1 COZ      -0.880500
     26 O2A         15.3820   -15.6440     9.2980 o          1 COZ      -0.880500
     27 O3A         14.7980   -13.1560     9.0000 os         1 COZ      -0.751800
     28 P2A         13.3950   -13.0400     8.1730 p5         1 COZ       1.507800
     29 O4A         13.5490   -13.7750     6.8800 o          1 COZ      -0.869500
     30 O5A         12.2360   -13.3370     9.0660 o          1 COZ      -0.869500
     31 O6A         13.3910   -11.4430     7.9230 os         1 COZ      -0.597400
     32 CBP         14.6770    -9.3840     7.3590 c3         1 COZ      -0.036000
     33 CCP         14.3760   -10.8610     7.0600 c3         1 COZ       0.254600
     34 CDP         15.3820    -8.8500     6.0940 c3         1 COZ      -0.078100
     35 CEP         13.3940    -8.5820     7.5870 c3         1 COZ      -0.078100
     36 CAP         15.6760    -9.1470     8.5310 c3         1 COZ       0.136300
     37 OAP         16.7100   -10.1210     8.4690 oh         1 COZ      -0.654000
     38 C9P         15.0710    -9.1110     9.9470 c          1 COZ       0.553100
     39 O9P         14.3610   -10.0060    10.3960 o          1 COZ      -0.493100
     40 N8P         15.3830    -8.0410    10.7170 ns         1 COZ      -0.537900
     41 C7P         16.3190    -6.9600    10.4570 c3         1 COZ       0.130000
     42 C6P         15.6700    -5.7300     9.8050 c3         1 COZ      -0.184400
     43 C5P         16.7450    -4.7190     9.4660 c          1 COZ       0.600100
     44 O5P         17.4510    -4.8460     8.4620 o          1 COZ      -0.635100
     45 N4P         16.9070    -3.7150    10.3450 ns         1 COZ      -0.515900
     46 C3P         17.9710    -2.7310    10.2370 c3         1 COZ       0.115000
     47 C2P         17.6370    -1.4680    11.0110 c3         1 COZ       0.065600
     48 S1P         17.5410    -1.8260    12.8150 sh         1 COZ      -0.426800
     49 H2A         19.0510    -7.0990    14.9200 h5         1 COZ       0.014100
     50 H61A        19.7110    -8.0200     9.7840 hn         1 COZ       0.479000
     51 H62A        20.3630    -6.6760    10.6520 hn         1 COZ       0.479000
     52 H8A         16.9570   -11.8390    11.1010 h5         1 COZ       0.171800
     53 H1B         16.7790   -11.2110    14.7860 h2         1 COZ       0.091700
     54 H2B         14.6660   -10.3810    12.7860 h1         1 COZ       0.032700
     55 HO2A        14.0880    -9.7910    15.3840 ho         1 COZ       0.609000
     56 H3B         13.0160   -11.8000    13.8520 h1         1 COZ       0.073700
     57 H4B         14.6690   -13.9630    13.8180 h1         1 COZ       0.088700
     58 H51A        13.1770   -13.1220    11.9250 h1         1 COZ       0.048700
     59 H52A        14.5550   -12.2040    11.3290 h1         1 COZ       0.048700
     60 H121        15.3030   -11.4290     7.1140 h1         1 COZ       0.025200
     61 H122        13.9960   -10.9220     6.0370 h1         1 COZ       0.025200
     62 H131        15.6320    -7.7950     6.2160 hc         1 COZ       0.020867
     63 H132        16.3040    -9.3980     5.8940 hc         1 COZ       0.020867
     64 H133        14.7310    -8.9470     5.2240 hc         1 COZ       0.020867
     65 H141        13.6280    -7.5280     7.7510 hc         1 COZ       0.020867
     66 H142        12.7500    -8.6490     6.7080 hc         1 COZ       0.020867
     67 H143        12.8390    -8.9530     8.4460 hc         1 COZ       0.020867
     68 H10         16.1030    -8.1620     8.3350 h1         1 COZ      -0.015300
     69 HO1         17.3380    -9.9860     9.2110 ho         1 COZ       0.485000
     70 HN8         14.9760    -8.0710    11.6420 hn         1 COZ       0.330500
     71 H71         16.7500    -6.6750    11.4170 h1         1 COZ       0.054200
     72 H72         17.1370    -7.3170     9.8380 h1         1 COZ       0.054200
     73 H61         15.1790    -6.0220     8.8770 hc         1 COZ       0.068700
     74 H62         14.9200    -5.3110    10.4770 hc         1 COZ       0.068700
     75 HN4         16.3460    -3.7050    11.1840 hn         1 COZ       0.332500
     76 H31         18.9190    -3.1540    10.5870 h1         1 COZ       0.056700
     77 H32         18.1000    -2.4770     9.1850 h1         1 COZ       0.056700
     78 H21         18.4120    -0.7240    10.8370 h1         1 COZ       0.053700
     79 H22         16.6770    -1.0670    10.6900 h1         1 COZ       0.053700
     80 HS1         16.7830    -0.7710    13.1540 hs         1 COZ       0.188800
@<TRIPOS>BOND
     1     1     2 ar  
     2     1     6 ar  
     3     2     3 ar  
     4     2    49 1   
     5     3     4 ar  
     6     4     5 ar  
     7     4    10 1   
     8     5     6 ar  
     9     5     8 1   
    10     6     7 1   
    11     7    50 1   
    12     7    51 1   
    13     8     9 2   
    14     9    10 1   
    15     9    52 1   
    16    10    11 1   
    17    11    12 1   
    18    11    21 1   
    19    11    53 1   
    20    12    13 1   
    21    12    14 1   
    22    12    54 1   
    23    13    55 1   
    24    14    15 1   
    25    14    20 1   
    26    14    56 1   
    27    15    16 1   
    28    16    17 1   
    29    16    18 1   
    30    16    19 1   
    31    20    21 1   
    32    20    22 1   
    33    20    57 1   
    34    22    23 1   
    35    22    58 1   
    36    22    59 1   
    37    23    24 1   
    38    24    25 1   
    39    24    26 1   
    40    24    27 1   
    41    27    28 1   
    42    28    29 1   
    43    28    30 1   
    44    28    31 1   
    45    31    33 1   
    46    32    33 1   
    47    32    34 1   
    48    32    35 1   
    49    32    36 1   
    50    33    60 1   
    51    33    61 1   
    52    34    62 1   
    53    34    63 1   
    54    34    64 1   
    55    35    65 1   
    56    35    66 1   
    57    35    67 1   
    58    36    37 1   
    59    36    38 1   
    60    36    68 1   
    61    37    69 1   
    62    38    39 2   
    63    38    40 1   
    64    40    41 1   
    65    40    70 1   
    66    41    42 1   
    67    41    71 1   
    68    41    72 1   
    69    42    43 1   
    70    42    73 1   
    71    42    74 1   
    72    43    44 2   
    73    43    45 1   
    74    45    46 1   
    75    45    75 1   
    76    46    47 1   
    77    46    76 1   
    78    46    77 1   
    79    47    48 1   
    80    47    78 1   
    81    47    79 1   
    82    48    80 1   
@<TRIPOS>SUBSTRUCTURE
     1 COZ         1 TEMP              0 ****  ****    0 ROOT
