@<TRIPOS>MOLECULE
COZ
   80    82     1     0     0
SMALL
No Charge or Current Charge


@<TRIPOS>ATOM
      1 N1A         19.3830    -7.9640    12.4360 nb         1 COZ      -0.341000
      2 C2A         18.7660    -8.2680    13.6020 ca         1 COZ       0.100900
      3 N3A         17.9960    -9.3530    13.8510 nb         1 COZ      -0.135000
      4 C4A         17.8240   -10.2100    12.8230 ca         1 COZ       0.104500
      5 C5A         18.4020    -9.9890    11.5950 ca         1 COZ      -0.081600
      6 C6A         19.2010    -8.8330    11.4320 ca         1 COZ       0.383900
      7 N6A         19.8260    -8.5190    10.2660 nv         1 COZ      -1.093900
      8 N7A         18.0980   -10.9900    10.6790 nc         1 COZ      -0.671100
      9 C8A         17.3260   -11.8230    11.4140 cd         1 COZ       0.499700
     10 N9A         17.1230   -11.3890    12.7400 na         1 COZ      -0.255300
     11 C1B         16.4190   -12.1170    13.7980 c5         1 COZ       0.273300
     12 C2B         15.2300   -11.3640    14.5150 c5         1 COZ       0.134300
     13 O2B         15.5900   -10.6260    15.7030 oh         1 COZ      -0.835000
     14 C3B         14.2100   -12.5480    14.7260 c5         1 COZ       0.185300
     15 O3B         14.6350   -13.4470    15.7930 os         1 COZ      -0.593400
     16 P3B         14.0820   -13.1340    17.2690 p5         1 COZ       1.299900
     17 O7A         14.6610   -14.1150    18.2240 o          1 COZ      -0.909833
     18 O8A         14.5140   -11.7600    17.6330 o          1 COZ      -0.909833
     19 O9A         12.5990   -13.2310    17.2780 o          1 COZ      -0.909833
     20 C4B         14.4000   -13.3000    13.3750 c5         1 COZ       0.129300
     21 O4B         15.8490   -13.3290    13.2340 os         1 COZ      -0.461000
     22 C5B         13.7260   -12.5620    12.1730 c3         1 COZ       0.207600
     23 O5B         13.1630   -13.4930    11.2320 os         1 COZ      -0.629400
     24 P1A         14.0300   -14.1030    10.0150 p5         1 COZ       1.526800
     25 O1A         15.3020   -14.7080    10.5050 o          1 COZ      -0.880500
     26 O2A         13.2580   -15.1200     9.2400 o          1 COZ      -0.880500
     27 O3A         14.3450   -12.7800     9.2250 os         1 COZ      -0.751800
     28 P2A         13.2030   -12.3040     8.2520 p5         1 COZ       1.507800
     29 O4A         13.2730   -12.9560     6.9090 o          1 COZ      -0.869500
     30 O5A         11.8250   -12.3290     8.8290 o          1 COZ      -0.869500
     31 O6A         13.6800   -10.7700     8.1460 os         1 COZ      -0.597400
     32 CBP         15.1940    -8.9420     7.4200 c3         1 COZ      -0.036000
     33 CCP         14.7650   -10.4470     7.2710 c3         1 COZ       0.254600
     34 CDP         15.8880    -8.5260     6.0870 c3         1 COZ      -0.078100
     35 CEP         13.9490    -8.0190     7.5860 c3         1 COZ      -0.078100
     36 CAP         16.2140    -8.7020     8.6000 c3         1 COZ       0.136300
     37 OAP         17.3730    -9.5600     8.4540 oh         1 COZ      -0.654000
     38 C9P         15.6020    -8.7540    10.0570 c          1 COZ       0.553100
     39 O9P         15.0540    -9.7430    10.5100 o          1 COZ      -0.493100
     40 N8P         15.6780    -7.6340    10.8670 ns         1 COZ      -0.537900
     41 C7P         16.5800    -6.4920    10.7050 c3         1 COZ       0.130000
     42 C6P         15.9000    -5.3230     9.9720 c3         1 COZ      -0.184400
     43 C5P         16.8460    -4.1290     9.8870 c          1 COZ       0.600100
     44 O5P         17.8010    -4.1010     9.1260 o          1 COZ      -0.635100
     45 N4P         16.5290    -3.0730    10.7070 ns         1 COZ      -0.515900
     46 C3P         17.2530    -1.7960    10.7420 c3         1 COZ       0.115000
     47 C2P         16.9640    -0.9050     9.5140 c3         1 COZ       0.065600
     48 S1P         15.1630    -0.5430     9.2410 sh         1 COZ      -0.426800
     49 H2A         18.9060    -7.5710    14.4260 h5         1 COZ       0.014100
     50 H61A        19.5090    -8.9960     9.4260 hn         1 COZ       0.479000
     51 H62A        20.1940    -7.5800    10.1520 hn         1 COZ       0.479000
     52 H8A         16.8950   -12.7540    11.0590 h5         1 COZ       0.171800
     53 H1B         17.1820   -12.3940    14.5360 h2         1 COZ       0.091700
     54 H2B         14.7930   -10.6540    13.7990 h1         1 COZ       0.032700
     55 HO2A        15.1500   -11.1110    16.5010 ho         1 COZ       0.609000
     56 H3B         13.1750   -12.2090    14.8820 h1         1 COZ       0.073700
     57 H4B         14.0110   -14.3250    13.4310 h1         1 COZ       0.088700
     58 H51A        12.9250   -11.9180    12.5580 h1         1 COZ       0.048700
     59 H52A        14.4570   -11.9050    11.6900 h1         1 COZ       0.048700
     60 H121        15.6230   -11.1100     7.4450 h1         1 COZ       0.025200
     61 H122        14.4410   -10.6120     6.2350 h1         1 COZ       0.025200
     62 H131        16.2460    -7.4900     6.1330 hc         1 COZ       0.020867
     63 H132        16.7470    -9.1710     5.8660 hc         1 COZ       0.020867
     64 H133        15.1930    -8.6000     5.2420 hc         1 COZ       0.020867
     65 H141        14.2400    -6.9620     7.5710 hc         1 COZ       0.020867
     66 H142        13.2340    -8.1790     6.7700 hc         1 COZ       0.020867
     67 H143        13.4230    -8.2040     8.5310 hc         1 COZ       0.020867
     68 H10         16.5660    -7.6760     8.4520 h1         1 COZ      -0.015300
     69 HO1         17.5130   -10.0450     9.3170 ho         1 COZ       0.485000
     70 HN8         15.2140    -7.7320    11.7630 hn         1 COZ       0.330500
     71 H71         16.8890    -6.1580    11.7050 h1         1 COZ       0.054200
     72 H72         17.4870    -6.8010    10.1690 h1         1 COZ       0.054200
     73 H61         15.6450    -5.6390     8.9560 hc         1 COZ       0.068700
     74 H62         14.9900    -5.0500    10.5180 hc         1 COZ       0.068700
     75 HN4         15.7050    -3.1750    11.2880 hn         1 COZ       0.332500
     76 H31         16.9600    -1.2560    11.6520 h1         1 COZ       0.056700
     77 H32         18.3310    -1.9950    10.8030 h1         1 COZ       0.056700
     78 H21         17.4940     0.0490     9.6310 h1         1 COZ       0.053700
     79 H22         17.3530    -1.3960     8.6130 h1         1 COZ       0.053700
     80 HS1         15.3300     0.2130     8.1290 hs         1 COZ       0.188800
@<TRIPOS>BOND
     1     1     2 ar  
     2     1     6 ar  
     3     2     3 ar  
     4     2    49 1   
     5     3     4 ar  
     6     4     5 ar  
     7     4    10 1   
     8     5     6 ar  
     9     5     8 1   
    10     6     7 1   
    11     7    50 1   
    12     7    51 1   
    13     8     9 2   
    14     9    10 1   
    15     9    52 1   
    16    10    11 1   
    17    11    12 1   
    18    11    21 1   
    19    11    53 1   
    20    12    13 1   
    21    12    14 1   
    22    12    54 1   
    23    13    55 1   
    24    14    15 1   
    25    14    20 1   
    26    14    56 1   
    27    15    16 1   
    28    16    17 1   
    29    16    18 1   
    30    16    19 1   
    31    20    21 1   
    32    20    22 1   
    33    20    57 1   
    34    22    23 1   
    35    22    58 1   
    36    22    59 1   
    37    23    24 1   
    38    24    25 1   
    39    24    26 1   
    40    24    27 1   
    41    27    28 1   
    42    28    29 1   
    43    28    30 1   
    44    28    31 1   
    45    31    33 1   
    46    32    33 1   
    47    32    34 1   
    48    32    35 1   
    49    32    36 1   
    50    33    60 1   
    51    33    61 1   
    52    34    62 1   
    53    34    63 1   
    54    34    64 1   
    55    35    65 1   
    56    35    66 1   
    57    35    67 1   
    58    36    37 1   
    59    36    38 1   
    60    36    68 1   
    61    37    69 1   
    62    38    39 2   
    63    38    40 1   
    64    40    41 1   
    65    40    70 1   
    66    41    42 1   
    67    41    71 1   
    68    41    72 1   
    69    42    43 1   
    70    42    73 1   
    71    42    74 1   
    72    43    44 2   
    73    43    45 1   
    74    45    46 1   
    75    45    75 1   
    76    46    47 1   
    77    46    76 1   
    78    46    77 1   
    79    47    48 1   
    80    47    78 1   
    81    47    79 1   
    82    48    80 1   
@<TRIPOS>SUBSTRUCTURE
     1 COZ         1 TEMP              0 ****  ****    0 ROOT
