@<TRIPOS>MOLECULE
CP2
   11    10     1     0     0
SMALL
abcg2


@<TRIPOS>ATOM
      1 CL1          0.0420    -0.1260    -1.9470 cl         1 CP2      -0.260000
      2 C2          -0.9680     0.3500    -0.5470 c3         1 CP2       0.113600
      3 C3          -0.5600    -0.3660     0.7180 c3         1 CP2       0.132300
      4 C4          -1.4730    -0.0010     1.8690 c3         1 CP2      -0.101100
      5 CL5          1.1420     0.0710     1.1390 cl         1 CP2      -0.273000
      6 HC21        -1.9970     0.0900    -0.7890 h1         1 CP2       0.073700
      7 HC22        -0.8920     1.4300    -0.4350 h1         1 CP2       0.073700
      8 HC31        -0.5590    -1.4430     0.5550 h1         1 CP2       0.084700
      9 HC41        -1.1690    -0.5150     2.7800 hc         1 CP2       0.051700
     10 HC42        -1.4650     1.0720     2.0570 hc         1 CP2       0.051700
     11 HC43        -2.4950    -0.3030     1.6380 hc         1 CP2       0.051700
@<TRIPOS>BOND
     1     1     2 1   
     2     2     3 1   
     3     2     6 1   
     4     2     7 1   
     5     3     4 1   
     6     3     5 1   
     7     3     8 1   
     8     4     9 1   
     9     4    10 1   
    10     4    11 1   
@<TRIPOS>SUBSTRUCTURE
     1 CP2         1 TEMP              0 ****  ****    0 ROOT
