@<TRIPOS>MOLECULE
CP2
   11    10     1     0     0
SMALL
No Charge or Current Charge


@<TRIPOS>ATOM
      1 Cl1          0.0640    -0.1460    -2.0030 cl         1 CP2      -0.260000
      2 C2          -0.9710     0.3540    -0.5880 c3         1 CP2       0.113600
      3 C3          -0.5490    -0.3470     0.7230 c3         1 CP2       0.132300
      4 C4          -1.4830    -0.0090     1.9020 c3         1 CP2      -0.101100
      5 Cl5          1.1660     0.0770     1.1660 cl         1 CP2      -0.273000
      6 HC21        -2.0080     0.0960    -0.8370 h1         1 CP2       0.073700
      7 HC22        -0.8930     1.4430    -0.4810 h1         1 CP2       0.073700
      8 HC31        -0.5700    -1.4320     0.5600 h1         1 CP2       0.084700
      9 HC41        -1.1690    -0.5440     2.8060 hc         1 CP2       0.051700
     10 HC42        -1.4670     1.0670     2.1160 hc         1 CP2       0.051700
     11 HC43        -2.5150    -0.3010     1.6740 hc         1 CP2       0.051700
@<TRIPOS>BOND
     1     1     2 1   
     2     2     3 1   
     3     2     6 1   
     4     2     7 1   
     5     3     4 1   
     6     3     5 1   
     7     3     8 1   
     8     4     9 1   
     9     4    10 1   
    10     4    11 1   
@<TRIPOS>SUBSTRUCTURE
     1 CP2         1 TEMP              0 ****  ****    0 ROOT
