@<TRIPOS>MOLECULE
CP3
   88    92     1     0     0
SMALL
abcg2


@<TRIPOS>ATOM
      1 O2R         15.4190    78.7540    62.1130 o          1 CP3      -0.723000
      2 C63         15.1370    77.8250    61.3230 c          1 CP3       0.707000
      3 O1R         14.2510    77.8420    60.4450 o          1 CP3      -0.723000
      4 C62         15.9740    76.5430    61.4610 c3         1 CP3      -0.203400
      5 C61         15.7550    75.8450    62.8090 c3         1 CP3       0.033900
      6 C18         14.3400    75.4090    63.0370 cc         1 CP3      -0.131300
      7 C19         13.7070    74.3650    62.4020 cd         1 CP3      -0.123300
      8 N24         12.4260    74.3190    62.8640 na         1 CP3      -0.095000
      9 C20         14.2140    73.4040    61.3690 c3         1 CP3       0.059200
     10 C1          13.4920    72.0940    61.3680 cc         1 CP3      -0.166300
     11 C17         13.3850    76.0100    63.9150 cc         1 CP3      -0.104300
     12 C86         13.6390    77.1720    64.8210 c3         1 CP3      -0.010800
     13 C16         12.2100    75.3050    63.7840 cd         1 CP3      -0.199300
     14 C15         10.8930    75.4480    64.4820 c3         1 CP3       0.089200
     15 C14          9.7150    75.4090    63.5630 cc         1 CP3      -0.183300
     16 N23          9.0910    74.2330    63.2570 na         1 CP3      -0.122000
     17 C13          9.0910    76.4070    62.8550 cd         1 CP3      -0.083300
     18 C51          9.4620    77.8560    62.8260 c3         1 CP3       0.014900
     19 C52         10.3090    78.2290    61.6110 c3         1 CP3      -0.211400
     20 C53         10.6500    79.7250    61.4490 c          1 CP3       0.723000
     21 O2M         11.3320    80.0190    60.4450 o          1 CP3      -0.760000
     22 O1M         10.2230    80.5180    62.3120 o          1 CP3      -0.760000
     23 C12          8.0420    75.7950    62.1000 cd         1 CP3      -0.125300
     24 C81          7.1120    76.5080    61.1750 c3         1 CP3      -0.000800
     25 C11          8.0700    74.4470    62.3750 cc         1 CP3      -0.196300
     26 C10          7.2780    73.3080    61.8120 c3         1 CP3       0.089200
     27 C6           8.0320    72.5600    60.7570 cc         1 CP3      -0.206300
     28 N22          8.9580    71.6110    61.0820 na         1 CP3      -0.095000
     29 C7           8.0720    72.7230    59.3910 cd         1 CP3      -0.101300
     30 C7A          7.2480    73.6720    58.5840 c3         1 CP3      -0.008800
     31 C8           9.0710    71.8340    58.8870 cd         1 CP3      -0.126300
     32 C41          9.5250    71.7290    57.4620 c3         1 CP3       0.025900
     33 C42         10.9340    72.2990    57.2260 c3         1 CP3      -0.210400
     34 C43         11.0550    73.7330    57.7520 c          1 CP3       0.721000
     35 O28         11.7120    73.9090    58.8130 o          1 CP3      -0.716500
     36 O18         10.4770    74.6260    57.1090 o          1 CP3      -0.716500
     37 C9           9.5950    71.1580    59.9640 cc         1 CP3      -0.145300
     38 C5          10.6920    70.1490    60.0480 c3         1 CP3       0.061200
     39 C4          11.8870    70.6480    60.8030 cc         1 CP3      -0.170300
     40 N21         12.4240    71.8760    60.5480 na         1 CP3      -0.091000
     41 C3          12.6200    70.0620    61.8140 cd         1 CP3      -0.154300
     42 C2          13.6460    70.9890    62.1720 cd         1 CP3      -0.192300
     43 C2A         14.6680    70.8090    63.2460 c3         1 CP3       0.013200
     44 C31         12.4150    68.7230    62.4520 c3         1 CP3       0.034900
     45 C32         13.4090    67.6550    61.9910 c3         1 CP3      -0.190400
     46 C33         13.2230    67.1860    60.5360 c          1 CP3       0.724000
     47 O13         14.2580    66.9940    59.8660 o          1 CP3      -0.758500
     48 O23         12.0480    66.9930    60.1540 o          1 CP3      -0.758500
     49 H621        15.7420    75.8440    60.6540 hc         1 CP3       0.001200
     50 H622        17.0370    76.7920    61.3690 hc         1 CP3       0.001200
     51 H611        16.4250    74.9800    62.8660 hc         1 CP3      -0.003300
     52 H612        16.0680    76.5160    63.6120 hc         1 CP3      -0.003300
     53 HN4         11.7360    73.6500    62.5600 hn         1 CP3       0.335000
     54 H201        14.1470    73.8530    60.3710 hc         1 CP3       0.070200
     55 H202        15.2810    73.2430    61.5430 hc         1 CP3       0.070200
     56 H861        14.1280    77.9870    64.2880 hc         1 CP3       0.025700
     57 H862        12.7150    77.5670    65.2450 hc         1 CP3       0.025700
     58 H863        14.2860    76.9060    65.6610 hc         1 CP3       0.025700
     59 H151        10.7800    74.6660    65.2430 hc         1 CP3       0.027200
     60 H152        10.8920    76.3910    65.0320 hc         1 CP3       0.027200
     61 HN3          9.3050    73.3450    63.6820 hn         1 CP3       0.314000
     62 H511         8.5530    78.4650    62.8280 hc         1 CP3       0.020700
     63 H512         9.9980    78.1240    63.7410 hc         1 CP3       0.020700
     64 H521        11.2470    77.6610    61.6300 hc         1 CP3       0.057700
     65 H522         9.8020    77.8980    60.6970 hc         1 CP3       0.057700
     66 H811         7.5890    76.7650    60.2250 hc         1 CP3       0.023367
     67 H812         6.2310    75.9110    60.9380 hc         1 CP3       0.023367
     68 H813         6.7580    77.4450    61.6110 hc         1 CP3       0.023367
     69 H101         6.9790    72.6240    62.6150 hc         1 CP3       0.022700
     70 H102         6.3490    73.6930    61.3900 hc         1 CP3       0.022700
     71 HN2          9.1460    71.2850    62.0170 hn         1 CP3       0.335000
     72 H7A1         7.8510    74.4800    58.1650 hc         1 CP3       0.027700
     73 H7A2         6.7620    73.1730    57.7420 hc         1 CP3       0.027700
     74 H7A3         6.4610    74.1300    59.1820 hc         1 CP3       0.027700
     75 H411         9.5120    70.6880    57.1250 hc         1 CP3       0.008700
     76 H412         8.8190    72.2570    56.8190 hc         1 CP3       0.008700
     77 H421        11.6710    71.6480    57.7010 hc         1 CP3       0.017200
     78 H422        11.1400    72.2810    56.1510 hc         1 CP3       0.017200
     79 H51         10.3480    69.2300    60.5270 hc         1 CP3       0.069200
     80 H52         10.9690    69.8570    59.0300 hc         1 CP3       0.069200
     81 HN1         12.0860    72.5670    59.8520 hn         1 CP3       0.432000
     82 H2A1        14.2120    70.5160    64.1950 hc         1 CP3       0.008700
     83 H2A2        15.4000    70.0350    63.0020 hc         1 CP3       0.008700
     84 H2A3        15.2230    71.7300    63.4300 hc         1 CP3       0.008700
     85 H311        12.5020    68.8340    63.5380 hc         1 CP3       0.003700
     86 H312        11.4000    68.3640    62.2710 hc         1 CP3       0.003700
     87 H321        14.4310    68.0130    62.1420 hc         1 CP3       0.002700
     88 H322        13.3000    66.7750    62.6370 hc         1 CP3       0.002700
@<TRIPOS>BOND
     1     1     2 1   
     2     2     3 1   
     3     2     4 1   
     4     4     5 1   
     5     4    49 1   
     6     4    50 1   
     7     5     6 1   
     8     5    51 1   
     9     5    52 1   
    10     6     7 2   
    11     6    11 1   
    12     7     8 1   
    13     7     9 1   
    14     8    13 1   
    15     8    53 1   
    16     9    10 1   
    17     9    54 1   
    18     9    55 1   
    19    10    40 1   
    20    10    42 2   
    21    11    12 1   
    22    11    13 2   
    23    12    56 1   
    24    12    57 1   
    25    12    58 1   
    26    13    14 1   
    27    14    15 1   
    28    14    59 1   
    29    14    60 1   
    30    15    16 1   
    31    15    17 2   
    32    16    25 1   
    33    16    61 1   
    34    17    18 1   
    35    17    23 1   
    36    18    19 1   
    37    18    62 1   
    38    18    63 1   
    39    19    20 1   
    40    19    64 1   
    41    19    65 1   
    42    20    21 1   
    43    20    22 1   
    44    23    24 1   
    45    23    25 2   
    46    24    66 1   
    47    24    67 1   
    48    24    68 1   
    49    25    26 1   
    50    26    27 1   
    51    26    69 1   
    52    26    70 1   
    53    27    28 1   
    54    27    29 2   
    55    28    37 1   
    56    28    71 1   
    57    29    30 1   
    58    29    31 1   
    59    30    72 1   
    60    30    73 1   
    61    30    74 1   
    62    31    32 1   
    63    31    37 2   
    64    32    33 1   
    65    32    75 1   
    66    32    76 1   
    67    33    34 1   
    68    33    77 1   
    69    33    78 1   
    70    34    35 1   
    71    34    36 1   
    72    37    38 1   
    73    38    39 1   
    74    38    79 1   
    75    38    80 1   
    76    39    40 1   
    77    39    41 2   
    78    40    81 1   
    79    41    42 1   
    80    41    44 1   
    81    42    43 1   
    82    43    82 1   
    83    43    83 1   
    84    43    84 1   
    85    44    45 1   
    86    44    85 1   
    87    44    86 1   
    88    45    46 1   
    89    45    87 1   
    90    45    88 1   
    91    46    47 1   
    92    46    48 1   
@<TRIPOS>SUBSTRUCTURE
     1 CP3         1 TEMP              0 ****  ****    0 ROOT
