@<TRIPOS>MOLECULE
CP3
   88    92     1     0     0
SMALL
No Charge or Current Charge


@<TRIPOS>ATOM
      1 O2R         17.2480    77.9390    63.8070 o          1 CP3      -0.723000
      2 C63         16.5360    77.4850    62.9230 c          1 CP3       0.707000
      3 O1R         15.7220    78.1530    62.3030 o          1 CP3      -0.723000
      4 C62         16.7070    76.0000    62.5510 c3         1 CP3      -0.203400
      5 C61         15.8460    75.0920    63.4620 c3         1 CP3       0.033900
      6 C18         14.3510    75.1990    63.2360 cc         1 CP3      -0.131300
      7 C19         13.6210    74.6420    62.2140 cd         1 CP3      -0.123300
      8 N24         12.2870    74.9880    62.4380 na         1 CP3      -0.095000
      9 C20         14.0660    73.7770    61.0560 c3         1 CP3       0.059200
     10 C1          13.4650    72.3930    61.1050 cc         1 CP3      -0.166300
     11 C17         13.4510    75.8710    64.1090 cc         1 CP3      -0.104300
     12 C86         13.8690    76.5830    65.3730 c3         1 CP3      -0.010800
     13 C16         12.1780    75.7300    63.6160 cd         1 CP3      -0.199300
     14 C15         10.8670    76.2240    64.1860 c3         1 CP3       0.089200
     15 C14          9.6550    75.8820    63.3470 cc         1 CP3      -0.183300
     16 N23          9.1300    74.5970    63.2460 na         1 CP3      -0.122000
     17 C13          8.8740    76.6790    62.5440 cd         1 CP3      -0.083300
     18 C51          9.0500    78.1670    62.3140 c3         1 CP3       0.014900
     19 C52          9.9220    78.4750    61.0780 c3         1 CP3      -0.211400
     20 C53         10.0040    79.9890    60.8600 c          1 CP3       0.723000
     21 O2M          9.1520    80.5190    60.1630 o          1 CP3      -0.760000
     22 O1M         10.8910    80.6090    61.4260 o          1 CP3      -0.760000
     23 C12          7.8750    75.8640    61.9400 cd         1 CP3      -0.125300
     24 C81          6.8290    76.3470    60.9600 c3         1 CP3      -0.000800
     25 C11          8.0510    74.5700    62.3660 cc         1 CP3      -0.196300
     26 C10          7.3020    73.3090    61.9990 c3         1 CP3       0.089200
     27 C6           8.0290    72.4820    60.9650 cc         1 CP3      -0.206300
     28 N22          9.0240    71.5630    61.2800 na         1 CP3      -0.095000
     29 C7           7.9230    72.4740    59.5950 cd         1 CP3      -0.101300
     30 C7A          6.9860    73.3180    58.7610 c3         1 CP3      -0.008800
     31 C8           8.8900    71.5690    59.0720 cd         1 CP3      -0.126300
     32 C41          9.1530    71.3160    57.6000 c3         1 CP3       0.025900
     33 C42         10.4920    71.8960    57.0800 c3         1 CP3      -0.210400
     34 C43         10.6260    73.3870    57.4260 c          1 CP3       0.721000
     35 O28         11.2260    73.6830    58.4490 o          1 CP3      -0.716500
     36 O18         10.1590    74.2040    56.6450 o          1 CP3      -0.716500
     37 C9           9.5630    71.0030    60.1270 cc         1 CP3      -0.145300
     38 C5          10.7300    70.0480    60.1470 c3         1 CP3       0.061200
     39 C4          11.9700    70.7050    60.7030 cc         1 CP3      -0.170300
     40 N21         12.3430    72.0080    60.3800 na         1 CP3      -0.091000
     41 C3          12.8960    70.2530    61.6140 cd         1 CP3      -0.154300
     42 C2          13.8260    71.3030    61.8580 cd         1 CP3      -0.192300
     43 C2A         14.9910    71.2520    62.8200 c3         1 CP3       0.013200
     44 C31         12.9050    68.8980    62.2950 c3         1 CP3       0.034900
     45 C32         13.8220    67.8470    61.6220 c3         1 CP3      -0.190400
     46 C33         13.2570    67.4100    60.2560 c          1 CP3       0.724000
     47 O13         13.6860    67.9440    59.2440 o          1 CP3      -0.758500
     48 O23         12.4230    66.5160    60.2400 o          1 CP3      -0.758500
     49 H621        16.3800    75.8110    61.5210 hc         1 CP3       0.001200
     50 H622        17.7390    75.6830    62.7450 hc         1 CP3       0.001200
     51 H611        16.1520    74.0540    63.2900 hc         1 CP3      -0.003300
     52 H612        16.1000    75.2950    64.5090 hc         1 CP3      -0.003300
     53 HN4         11.5060    74.7230    61.8480 hn         1 CP3       0.335000
     54 H201        13.7940    74.2660    60.1130 hc         1 CP3       0.070200
     55 H202        15.1590    73.6970    61.0370 hc         1 CP3       0.070200
     56 H861        14.6330    77.3400    65.1650 hc         1 CP3       0.025700
     57 H862        13.0220    77.0910    65.8470 hc         1 CP3       0.025700
     58 H863        14.2810    75.8740    66.1020 hc         1 CP3       0.025700
     59 H151        10.7310    75.8000    65.1890 hc         1 CP3       0.027200
     60 H152        10.9280    77.3080    64.3370 hc         1 CP3       0.027200
     61 HN3          9.4970    73.7880    63.7350 hn         1 CP3       0.314000
     62 H511         8.0730    78.6490    62.1940 hc         1 CP3       0.020700
     63 H512         9.4970    78.6400    63.1950 hc         1 CP3       0.020700
     64 H521        10.9140    78.0650    61.3020 hc         1 CP3       0.057700
     65 H522         9.4240    77.9950    60.2280 hc         1 CP3       0.057700
     66 H811         7.2260    76.3470    59.9380 hc         1 CP3       0.023367
     67 H812         5.9370    75.7120    60.9730 hc         1 CP3       0.023367
     68 H813         6.4940    77.3640    61.1890 hc         1 CP3       0.023367
     69 H101         7.1580    72.7050    62.9040 hc         1 CP3       0.022700
     70 H102         6.2900    73.5470    61.6540 hc         1 CP3       0.022700
     71 HN2          9.3410    71.3500    62.2200 hn         1 CP3       0.335000
     72 H7A1         7.5390    74.0900    58.2150 hc         1 CP3       0.027700
     73 H7A2         6.4490    72.7040    58.0290 hc         1 CP3       0.027700
     74 H7A3         6.2290    73.8210    59.3720 hc         1 CP3       0.027700
     75 H411         9.1440    70.2360    57.4090 hc         1 CP3       0.008700
     76 H412         8.3410    71.7280    56.9910 hc         1 CP3       0.008700
     77 H421        11.2920    71.3210    57.5590 hc         1 CP3       0.017200
     78 H422        10.4530    71.7600    55.9920 hc         1 CP3       0.017200
     79 H51         10.4580    69.1710    60.7450 hc         1 CP3       0.069200
     80 H52         10.9350    69.6630    59.1430 hc         1 CP3       0.069200
     81 HN1         11.8410    72.6080    59.7160 hn         1 CP3       0.432000
     82 H2A1        14.7460    71.7670    63.7560 hc         1 CP3       0.008700
     83 H2A2        15.2770    70.2240    63.0690 hc         1 CP3       0.008700
     84 H2A3        15.8770    71.7360    62.3920 hc         1 CP3       0.008700
     85 H311        13.2290    69.0190    63.3360 hc         1 CP3       0.003700
     86 H312        11.8890    68.4920    62.3640 hc         1 CP3       0.003700
     87 H321        14.8090    68.3130    61.5140 hc         1 CP3       0.002700
     88 H322        13.8150    66.9980    62.3170 hc         1 CP3       0.002700
@<TRIPOS>BOND
     1     1     2 1   
     2     2     3 1   
     3     2     4 1   
     4     4     5 1   
     5     4    49 1   
     6     4    50 1   
     7     5     6 1   
     8     5    51 1   
     9     5    52 1   
    10     6     7 2   
    11     6    11 1   
    12     7     8 1   
    13     7     9 1   
    14     8    13 1   
    15     8    53 1   
    16     9    10 1   
    17     9    54 1   
    18     9    55 1   
    19    10    40 1   
    20    10    42 2   
    21    11    12 1   
    22    11    13 2   
    23    12    56 1   
    24    12    57 1   
    25    12    58 1   
    26    13    14 1   
    27    14    15 1   
    28    14    59 1   
    29    14    60 1   
    30    15    16 1   
    31    15    17 2   
    32    16    25 1   
    33    16    61 1   
    34    17    18 1   
    35    17    23 1   
    36    18    19 1   
    37    18    62 1   
    38    18    63 1   
    39    19    20 1   
    40    19    64 1   
    41    19    65 1   
    42    20    21 1   
    43    20    22 1   
    44    23    24 1   
    45    23    25 2   
    46    24    66 1   
    47    24    67 1   
    48    24    68 1   
    49    25    26 1   
    50    26    27 1   
    51    26    69 1   
    52    26    70 1   
    53    27    28 1   
    54    27    29 2   
    55    28    37 1   
    56    28    71 1   
    57    29    30 1   
    58    29    31 1   
    59    30    72 1   
    60    30    73 1   
    61    30    74 1   
    62    31    32 1   
    63    31    37 2   
    64    32    33 1   
    65    32    75 1   
    66    32    76 1   
    67    33    34 1   
    68    33    77 1   
    69    33    78 1   
    70    34    35 1   
    71    34    36 1   
    72    37    38 1   
    73    38    39 1   
    74    38    79 1   
    75    38    80 1   
    76    39    40 1   
    77    39    41 2   
    78    40    81 1   
    79    41    42 1   
    80    41    44 1   
    81    42    43 1   
    82    43    82 1   
    83    43    83 1   
    84    43    84 1   
    85    44    45 1   
    86    44    85 1   
    87    44    86 1   
    88    45    46 1   
    89    45    87 1   
    90    45    88 1   
    91    46    47 1   
    92    46    48 1   
@<TRIPOS>SUBSTRUCTURE
     1 CP3         1 TEMP              0 ****  ****    0 ROOT
