@<TRIPOS>MOLECULE
CP4
   58    61     1     0     0
SMALL
No Charge or Current Charge


@<TRIPOS>ATOM
      1 C0           0.6880     0.8300    -7.7320 ca         1 CP4      -0.113300
      2 C1          -0.2350     0.0180    -7.1360 ca         1 CP4      -0.036700
      3 C2           1.7880     0.9570    -6.8270 cc         1 CP4      -0.153200
      4 C3           0.4870     1.3840    -9.0040 ca         1 CP4      -0.038000
      5 N4           0.2010    -0.3950    -5.8880 na         1 CP4      -0.215700
      6 C5          -1.4410    -0.3040    -7.7740 ca         1 CP4      -0.126000
      7 C6           1.4830     0.2020    -5.6960 cd         1 CP4      -0.146300
      8 C7          -0.7180     1.0760    -9.6690 ca         1 CP4       0.087000
      9 C8          -1.6790     0.2350    -9.0580 ca         1 CP4      -0.074000
     10 C9           2.4060     0.0940    -4.5260 c          1 CP4       0.631800
     11 Cl10        -1.0290     1.7400   -11.2680 cl         1 CP4      -0.210000
     12 N11          1.9280    -0.6990    -3.5060 ns         1 CP4      -0.506900
     13 O12          3.4940     0.6510    -4.4650 o          1 CP4      -0.585600
     14 C13          2.6130    -0.9050    -2.2210 c3         1 CP4       0.100000
     15 C14          2.5260     0.3190    -1.2800 c3         1 CP4       0.140100
     16 O15          1.1380     0.5730    -0.9900 os         1 CP4      -0.459500
     17 C16          0.9050     1.7060    -0.1290 c3         1 CP4       0.161600
     18 C17         -0.6170     1.8620     0.1040 c3         1 CP4       0.161600
     19 O18         -1.0730     0.8060     0.9740 os         1 CP4      -0.459500
     20 C19         -2.4830     0.8380     1.2640 c3         1 CP4       0.140100
     21 C20         -2.8150    -0.3350     2.2150 c3         1 CP4       0.100000
     22 N21         -2.1020    -0.2610     3.4990 ns         1 CP4      -0.506900
     23 C22         -2.4090     0.6190     4.5120 c          1 CP4       0.631800
     24 C23         -1.4860     0.5460     5.6770 cc         1 CP4      -0.146300
     25 O24         -3.3620     1.3840     4.4440 o          1 CP4      -0.585600
     26 N25         -0.3470    -0.2610     5.9380 na         1 CP4      -0.215700
     27 C26         -1.6050     1.3410     6.8130 cd         1 CP4      -0.153200
     28 C27          0.1820     0.0490     7.1820 ca         1 CP4      -0.036700
     29 C28         -0.5650     1.0360     7.7600 ca         1 CP4      -0.113300
     30 C29          1.2960    -0.5000     7.8300 ca         1 CP4      -0.126000
     31 C30         -0.2700     1.5580     9.0250 ca         1 CP4      -0.038000
     32 C31          1.6260     0.0000     9.1100 ca         1 CP4      -0.074000
     33 C32          0.8470     1.0240     9.7030 ca         1 CP4       0.087000
     34 Cl33         1.2750     1.6340    11.2970 cl         1 CP4      -0.210000
     35 H2           2.7010     1.5310    -6.9770 ha         1 CP4       0.225000
     36 H3           1.2320     2.0280    -9.4630 ha         1 CP4       0.135000
     37 HN4         -0.3020    -1.0020    -5.2490 hn         1 CP4       0.350000
     38 H5          -2.1730    -0.9510    -7.2970 ha         1 CP4       0.118000
     39 H8          -2.6040     0.0040    -9.5800 ha         1 CP4       0.128000
     40 H11          1.0110    -1.1030    -3.6280 hn         1 CP4       0.321500
     41 H131         2.1710    -1.7750    -1.7190 h1         1 CP4       0.067700
     42 H132         3.6700    -1.1340    -2.4130 h1         1 CP4       0.067700
     43 H141         3.0800     0.1030    -0.3570 h1         1 CP4       0.034450
     44 H142         2.9890     1.1890    -1.7630 h1         1 CP4       0.034450
     45 H161         1.4130     1.5800     0.8370 h1         1 CP4       0.031200
     46 H162         1.2860     2.6230    -0.5970 h1         1 CP4       0.031200
     47 H171        -0.8060     2.8410     0.5650 h1         1 CP4       0.031200
     48 H172        -1.1410     1.8330    -0.8610 h1         1 CP4       0.031200
     49 H191        -2.7620     1.7880     1.7400 h1         1 CP4       0.034450
     50 H192        -3.0700     0.7310     0.3420 h1         1 CP4       0.034450
     51 H201        -3.8960    -0.3460     2.4070 h1         1 CP4       0.067700
     52 H202        -2.5570    -1.2810     1.7200 h1         1 CP4       0.067700
     53 H21         -1.2860    -0.8420     3.6280 hn         1 CP4       0.321500
     54 H25          0.0370    -0.9670     5.3180 hn         1 CP4       0.350000
     55 H26         -2.3820     2.0890     6.9590 ha         1 CP4       0.225000
     56 H29          1.8880    -1.2860     7.3660 ha         1 CP4       0.118000
     57 H30         -0.8760     2.3440     9.4700 ha         1 CP4       0.135000
     58 H31          2.4840    -0.4020     9.6440 ha         1 CP4       0.128000
@<TRIPOS>BOND
     1     1     2 ar  
     2     1     3 1   
     3     1     4 ar  
     4     2     5 1   
     5     2     6 ar  
     6     3     7 2   
     7     3    35 1   
     8     4     8 ar  
     9     4    36 1   
    10     5     7 1   
    11     5    37 1   
    12     6     9 ar  
    13     6    38 1   
    14     7    10 1   
    15     8     9 ar  
    16     8    11 1   
    17     9    39 1   
    18    10    12 1   
    19    10    13 2   
    20    12    14 1   
    21    12    40 1   
    22    14    15 1   
    23    14    41 1   
    24    14    42 1   
    25    15    16 1   
    26    15    43 1   
    27    15    44 1   
    28    16    17 1   
    29    17    18 1   
    30    17    45 1   
    31    17    46 1   
    32    18    19 1   
    33    18    47 1   
    34    18    48 1   
    35    19    20 1   
    36    20    21 1   
    37    20    49 1   
    38    20    50 1   
    39    21    22 1   
    40    21    51 1   
    41    21    52 1   
    42    22    23 1   
    43    22    53 1   
    44    23    24 1   
    45    23    25 2   
    46    24    26 1   
    47    24    27 2   
    48    26    28 1   
    49    26    54 1   
    50    27    29 1   
    51    27    55 1   
    52    28    29 ar  
    53    28    30 ar  
    54    29    31 ar  
    55    30    32 ar  
    56    30    56 1   
    57    31    33 ar  
    58    31    57 1   
    59    32    33 ar  
    60    32    58 1   
    61    33    34 1   
@<TRIPOS>SUBSTRUCTURE
     1 CP4         1 TEMP              0 ****  ****    0 ROOT
