@<TRIPOS>MOLECULE
CP4
   58    61     1     0     0
SMALL
bcc


@<TRIPOS>ATOM
      1 C0           0.6690    -0.1030    -7.7430 ca         1 CP4      -0.113300
      2 C1           0.0680     0.8340    -6.8750 ca         1 CP4      -0.036700
      3 C2           1.6360    -0.8130    -6.9790 cc         1 CP4      -0.103200
      4 C3           0.2580    -0.1710    -9.0810 ca         1 CP4      -0.056000
      5 N4           0.6320     0.6780    -5.6460 na         1 CP4      -0.165400
      6 C5          -0.9190     1.7170    -7.3090 ca         1 CP4      -0.144000
      7 C6           1.5850    -0.3080    -5.7080 cd         1 CP4      -0.146300
      8 C7          -0.7220     0.7030    -9.4920 ca         1 CP4      -0.004600
      9 C8          -1.3100     1.6420    -8.6290 ca         1 CP4      -0.092000
     10 C9           2.3970    -0.7570    -4.5560 c          1 CP4       0.698800
     11 CL10        -1.2630     0.6560   -11.1450 cl         1 CP4      -0.118400
     12 N11          1.9120    -0.4500    -3.3420 ns         1 CP4      -0.573900
     13 O12          3.4400    -1.3690    -4.7410 o          1 CP4      -0.585600
     14 C13          2.5720    -0.7970    -2.1030 c3         1 CP4       0.100000
     15 C14          2.4420     0.3220    -1.0940 c3         1 CP4       0.116900
     16 O15          1.0750     0.5500    -0.8540 os         1 CP4      -0.413100
     17 C16          0.8340     1.6920    -0.0710 c3         1 CP4       0.138400
     18 C17         -0.6490     1.8810     0.1110 c3         1 CP4       0.138400
     19 O18         -1.1690     0.8280     0.8840 os         1 CP4      -0.413100
     20 C19         -2.5400     0.9650     1.1630 c3         1 CP4       0.116900
     21 C20         -2.9250    -0.0750     2.1920 c3         1 CP4       0.100000
     22 N21         -2.1470     0.1010     3.3990 ns         1 CP4      -0.573900
     23 C22         -2.6140    -0.1660     4.6300 c          1 CP4       0.698800
     24 C23         -1.6690     0.0760     5.7420 cc         1 CP4      -0.146300
     25 O24         -3.7420    -0.5810     4.8580 o          1 CP4      -0.585600
     26 N25         -0.5660     0.8880     5.6520 na         1 CP4      -0.165400
     27 C26         -1.7280    -0.4780     6.9910 cd         1 CP4      -0.103200
     28 C27          0.0910     0.8840     6.8440 ca         1 CP4      -0.036700
     29 C28         -0.6060     0.0170     7.7140 ca         1 CP4      -0.113300
     30 C29          1.2380     1.5670     7.2450 ca         1 CP4      -0.144000
     31 C30         -0.1300    -0.1870     9.0160 ca         1 CP4      -0.056000
     32 C31          1.6910     1.3600     8.5300 ca         1 CP4      -0.092000
     33 C32          1.0060     0.4890     9.3940 ca         1 CP4      -0.004600
     34 CL33         1.6310     0.2700    11.0020 cl         1 CP4      -0.118400
     35 H2           2.2730    -1.6150    -7.3170 ha         1 CP4       0.175000
     36 H3           0.6990    -0.8830    -9.7640 ha         1 CP4       0.153000
     37 HN4          0.4720     1.2980    -4.8680 hn         1 CP4       0.299700
     38 H5          -1.3730     2.4370    -6.6410 ha         1 CP4       0.136000
     39 H8          -2.0760     2.3070    -9.0020 ha         1 CP4       0.146000
     40 H11          0.9650    -0.1150    -3.2570 hn         1 CP4       0.321500
     41 H131         2.1580    -1.7240    -1.6950 h1         1 CP4       0.067700
     42 H132         3.6280    -0.9730    -2.2990 h1         1 CP4       0.067700
     43 H141         2.9660     0.0380    -0.1720 h1         1 CP4       0.034450
     44 H142         2.9280     1.2280    -1.4820 h1         1 CP4       0.034450
     45 H161         1.3220     1.6070     0.9100 h1         1 CP4       0.031200
     46 H162         1.2380     2.5920    -0.5530 h1         1 CP4       0.031200
     47 H171        -0.8140     2.8480     0.6050 h1         1 CP4       0.031200
     48 H172        -1.1450     1.9340    -0.8690 h1         1 CP4       0.031200
     49 H191        -2.7620     1.9680     1.5520 h1         1 CP4       0.034450
     50 H192        -3.1490     0.8210     0.2610 h1         1 CP4       0.034450
     51 H201        -3.9820     0.0370     2.4280 h1         1 CP4       0.067700
     52 H202        -2.7870    -1.0820     1.7860 h1         1 CP4       0.067700
     53 H21         -1.1570     0.2350     3.2650 hn         1 CP4       0.321500
     54 H25         -0.3550     1.5150     4.8920 hn         1 CP4       0.299700
     55 H26         -2.4730    -1.1750     7.3410 ha         1 CP4       0.175000
     56 H29          1.7620     2.2370     6.5770 ha         1 CP4       0.136000
     57 H30         -0.6430    -0.8520     9.6980 ha         1 CP4       0.153000
     58 H31          2.5800     1.8700     8.8750 ha         1 CP4       0.146000
@<TRIPOS>BOND
     1     1     2 ar  
     2     1     3 1   
     3     1     4 ar  
     4     2     5 1   
     5     2     6 ar  
     6     3     7 2   
     7     3    35 1   
     8     4     8 ar  
     9     4    36 1   
    10     5     7 1   
    11     5    37 1   
    12     6     9 ar  
    13     6    38 1   
    14     7    10 1   
    15     8     9 ar  
    16     8    11 1   
    17     9    39 1   
    18    10    12 1   
    19    10    13 2   
    20    12    14 1   
    21    12    40 1   
    22    14    15 1   
    23    14    41 1   
    24    14    42 1   
    25    15    16 1   
    26    15    43 1   
    27    15    44 1   
    28    16    17 1   
    29    17    18 1   
    30    17    45 1   
    31    17    46 1   
    32    18    19 1   
    33    18    47 1   
    34    18    48 1   
    35    19    20 1   
    36    20    21 1   
    37    20    49 1   
    38    20    50 1   
    39    21    22 1   
    40    21    51 1   
    41    21    52 1   
    42    22    23 1   
    43    22    53 1   
    44    23    24 1   
    45    23    25 2   
    46    24    26 1   
    47    24    27 2   
    48    26    28 1   
    49    26    54 1   
    50    27    29 1   
    51    27    55 1   
    52    28    29 ar  
    53    28    30 ar  
    54    29    31 ar  
    55    30    32 ar  
    56    30    56 1   
    57    31    33 ar  
    58    31    57 1   
    59    32    33 ar  
    60    32    58 1   
    61    33    34 1   
@<TRIPOS>SUBSTRUCTURE
     1 CP4         1 TEMP              0 ****  ****    0 ROOT
