@<TRIPOS>MOLECULE
CP5
   21    21     1     0     0
SMALL
No Charge or Current Charge


@<TRIPOS>ATOM
      1 C1          -4.2020    -1.5680     0.1170 ca         1 CP5      -0.133000
      2 C2          -3.9070    -0.6090     1.1000 ca         1 CP5      -0.126000
      3 C3          -2.6930     0.0980     1.0520 ca         1 CP5      -0.098500
      4 C4          -1.7660    -0.1460     0.0180 ca         1 CP5      -0.005800
      5 C5          -2.0660    -1.1160    -0.9600 ca         1 CP5      -0.098500
      6 C6          -3.2800    -1.8220    -0.9120 ca         1 CP5      -0.126000
      7 C7          -0.4630     0.5830    -0.0260 ce         1 CP5      -0.108400
      8 C8           0.6750    -0.1540     0.0840 c2         1 CP5      -0.069900
      9 C9          -0.5180     2.0960    -0.1960 c          1 CP5       0.736200
     10 O1           1.9560     0.3600     0.0560 os         1 CP5      -0.468500
     11 P1           3.2390    -0.7010     0.2110 p4         1 CP5       1.367900
     12 O2           2.8390    -2.1610     0.3610 o          1 CP5      -0.676000
     13 O3           4.5900    -0.0220     0.1680 o          1 CP5      -0.495500
     14 O4           0.5150     2.7530    -0.2000 o          1 CP5      -0.703500
     15 O5          -1.6130     2.6250    -0.3400 o          1 CP5      -0.703500
     16 H1          -5.1410    -2.1150     0.1550 ha         1 CP5       0.092000
     17 H2          -4.6180    -0.4130     1.9000 ha         1 CP5       0.095500
     18 H3          -2.4680     0.8360     1.8190 ha         1 CP5       0.126500
     19 H5          -1.3560    -1.3180    -1.7590 ha         1 CP5       0.126500
     20 H6          -3.5060    -2.5670    -1.6720 ha         1 CP5       0.095500
     21 H8           0.6030    -1.2380     0.2060 h4         1 CP5       0.173000
@<TRIPOS>BOND
     1     1     2 ar  
     2     1     6 ar  
     3     1    16 1   
     4     2     3 ar  
     5     2    17 1   
     6     3     4 ar  
     7     3    18 1   
     8     4     5 ar  
     9     4     7 1   
    10     5     6 ar  
    11     5    19 1   
    12     6    20 1   
    13     7     8 2   
    14     7     9 1   
    15     8    10 1   
    16     8    21 1   
    17     9    14 1   
    18     9    15 1   
    19    10    11 1   
    20    11    12 1   
    21    11    13 2   
@<TRIPOS>SUBSTRUCTURE
     1 CP5         1 TEMP              0 ****  ****    0 ROOT
