@<TRIPOS>MOLECULE
CP5
   21    21     1     0     0
SMALL
abcg2


@<TRIPOS>ATOM
      1 C1          -4.2930    -1.4700     0.2060 ca         1 CP5      -0.133000
      2 C2          -4.0070    -0.3790     1.0170 ca         1 CP5      -0.126000
      3 C3          -2.7600     0.2250     0.9670 ca         1 CP5      -0.098500
      4 C4          -1.7690    -0.2580     0.1090 ca         1 CP5      -0.005800
      5 C5          -2.0700    -1.3480    -0.7100 ca         1 CP5      -0.098500
      6 C6          -3.3180    -1.9520    -0.6580 ca         1 CP5      -0.126000
      7 C7          -0.4450     0.3880     0.0660 ce         1 CP5      -0.108400
      8 C8           0.6490    -0.3550    -0.0180 c2         1 CP5      -0.069900
      9 C9          -0.3930     1.9150     0.1090 c          1 CP5       0.736200
     10 O1           1.8830     0.2980    -0.0840 os         1 CP5      -0.468500
     11 P1           3.2700    -0.4180    -0.2510 p4         1 CP5       1.367900
     12 O2           3.2350    -1.8770    -0.3540 o          1 CP5      -0.676000
     13 O3           4.3740     0.5390    -0.2720 o          1 CP5      -0.495500
     14 O4          -0.3400     2.4230     1.2400 o          1 CP5      -0.703500
     15 O5          -0.4400     2.4770    -0.9950 o          1 CP5      -0.703500
     16 H1          -5.2690    -1.9360     0.2420 ha         1 CP5       0.092000
     17 H2          -4.7600     0.0070     1.6930 ha         1 CP5       0.095500
     18 H3          -2.5470     1.0680     1.6110 ha         1 CP5       0.126500
     19 H5          -1.3310    -1.7170    -1.4100 ha         1 CP5       0.126500
     20 H6          -3.5320    -2.7940    -1.3030 ha         1 CP5       0.095500
     21 H8           0.6820    -1.4370    -0.0240 h4         1 CP5       0.173000
@<TRIPOS>BOND
     1     1     2 ar  
     2     1     6 ar  
     3     1    16 1   
     4     2     3 ar  
     5     2    17 1   
     6     3     4 ar  
     7     3    18 1   
     8     4     5 ar  
     9     4     7 1   
    10     5     6 ar  
    11     5    19 1   
    12     6    20 1   
    13     7     8 2   
    14     7     9 1   
    15     8    10 1   
    16     8    21 1   
    17     9    14 1   
    18     9    15 1   
    19    10    11 1   
    20    11    12 1   
    21    11    13 2   
@<TRIPOS>SUBSTRUCTURE
     1 CP5         1 TEMP              0 ****  ****    0 ROOT
