@<TRIPOS>MOLECULE
CP6
   30    31     1     0     0
SMALL
No Charge or Current Charge


@<TRIPOS>ATOM
      1 N1          -1.4380     0.2670    -3.0670 nb         1 CP6      -0.326000
      2 C2          -0.2540     0.1760    -3.6730 ca         1 CP6       0.407900
      3 C3          -1.4020     0.2550    -1.7330 ca         1 CP6       0.423900
      4 C4          -0.2070     0.1450    -0.9890 cp         1 CP6      -0.276000
      5 C5           0.9860     0.0550    -1.7580 ca         1 CP6       0.209300
      6 N6           0.9530     0.0730    -3.1060 nb         1 CP6      -0.286000
      7 C7          -0.2020     0.1350     0.5030 cp         1 CP6      -0.010000
      8 C8           0.1420    -1.0350     1.2200 ca         1 CP6      -0.097500
      9 C9           0.1530    -1.0410     2.6260 ca         1 CP6      -0.107000
     10 C10         -0.1830     0.1240     3.3340 ca         1 CP6       0.117000
     11 C11         -0.5320     1.2940     2.6400 ca         1 CP6      -0.107000
     12 C12         -0.5420     1.2980     1.2340 ca         1 CP6      -0.097500
     13 N13         -2.6180     0.3380    -1.1380 nv         1 CP6      -1.066900
     14 N14         -0.2790     0.1870    -5.0250 nv         1 CP6      -1.044900
     15 C15          2.3820    -0.0330    -1.1450 c3         1 CP6      -0.136700
     16 C16          2.9800    -1.4530    -1.2060 c3         1 CP6      -0.081100
     17 Cl1         -0.1700     0.1170     5.0930 cl         1 CP6      -0.203000
     18 H8           0.3950    -1.9430     0.6790 ha         1 CP6       0.123500
     19 H9           0.4190    -1.9470     3.1660 ha         1 CP6       0.129500
     20 H11         -0.7930     2.1940     3.1900 ha         1 CP6       0.129500
     21 H12         -0.8090     2.2070     0.7010 ha         1 CP6       0.123500
     22 H131        -3.4420     0.1730    -1.7080 hn         1 CP6       0.489000
     23 H132        -2.6850     0.1080    -0.1510 hn         1 CP6       0.489000
     24 H141        -1.1710     0.0420    -5.4910 hn         1 CP6       0.483000
     25 H142         0.5570    -0.0990    -5.5290 hn         1 CP6       0.483000
     26 H151         2.3720     0.3040    -0.1020 hc         1 CP6       0.060200
     27 H152         3.0590     0.6550    -1.6680 hc         1 CP6       0.060200
     28 H161         3.9740    -1.4700    -0.7430 hc         1 CP6       0.036700
     29 H162         2.3430    -2.1700    -0.6750 hc         1 CP6       0.036700
     30 H163         3.0820    -1.7880    -2.2450 hc         1 CP6       0.036700
@<TRIPOS>BOND
     1     1     2 ar  
     2     1     3 ar  
     3     2     6 ar  
     4     2    14 1   
     5     3     4 ar  
     6     3    13 1   
     7     4     5 ar  
     8     4     7 1   
     9     5     6 ar  
    10     5    15 1   
    11     7     8 ar  
    12     7    12 ar  
    13     8     9 ar  
    14     8    18 1   
    15     9    10 ar  
    16     9    19 1   
    17    10    11 ar  
    18    10    17 1   
    19    11    12 ar  
    20    11    20 1   
    21    12    21 1   
    22    13    22 1   
    23    13    23 1   
    24    14    24 1   
    25    14    25 1   
    26    15    16 1   
    27    15    26 1   
    28    15    27 1   
    29    16    28 1   
    30    16    29 1   
    31    16    30 1   
@<TRIPOS>SUBSTRUCTURE
     1 CP6         1 TEMP              0 ****  ****    0 ROOT
