@<TRIPOS>MOLECULE
CP6
   30    31     1     0     0
SMALL
abcg2


@<TRIPOS>ATOM
      1 N1          -1.3970     0.2150    -3.0250 nb         1 CP6      -0.326000
      2 C2          -0.2210     0.1460    -3.6420 ca         1 CP6       0.407900
      3 C3          -1.3760     0.2170    -1.6980 ca         1 CP6       0.423900
      4 C4          -0.1680     0.1380    -0.9660 cp         1 CP6      -0.276000
      5 C5           0.9890     0.0630    -1.7250 ca         1 CP6       0.209300
      6 N6           0.9700     0.0680    -3.0600 nb         1 CP6      -0.286000
      7 C7          -0.1830     0.1350     0.5130 cp         1 CP6      -0.010000
      8 C8           0.1210    -1.0160     1.2380 ca         1 CP6      -0.097500
      9 C9           0.1080    -1.0170     2.6240 ca         1 CP6      -0.107000
     10 C10         -0.2280     0.1460     3.2980 ca         1 CP6       0.117000
     11 C11         -0.5460     1.3030     2.6060 ca         1 CP6      -0.107000
     12 C12         -0.5200     1.2890     1.2200 ca         1 CP6      -0.097500
     13 N13         -2.5670     0.3220    -1.0720 nv         1 CP6      -1.066900
     14 N14         -0.2420     0.1960    -4.9980 nv         1 CP6      -1.044900
     15 C15          2.3540    -0.0450    -1.1070 c3         1 CP6      -0.136700
     16 C16          2.9650    -1.4280    -1.3190 c3         1 CP6      -0.081100
     17 CL1         -0.2550     0.1510     5.0290 cl         1 CP6      -0.203000
     18 H8           0.3720    -1.9300     0.7150 ha         1 CP6       0.123500
     19 H9           0.3520    -1.9180     3.1700 ha         1 CP6       0.129500
     20 H11         -0.8070     2.2090     3.1360 ha         1 CP6       0.129500
     21 H12         -0.7590     2.1980     0.6830 ha         1 CP6       0.123500
     22 H131        -3.3990     0.1940    -1.6200 hn         1 CP6       0.489000
     23 H132        -2.6450     0.1080    -0.0940 hn         1 CP6       0.489000
     24 H141        -1.1110    -0.0150    -5.4560 hn         1 CP6       0.483000
     25 H142         0.5830    -0.1110    -5.4820 hn         1 CP6       0.483000
     26 H151         2.3170     0.1860    -0.0430 hc         1 CP6       0.060200
     27 H152         2.9950     0.7050    -1.5750 hc         1 CP6       0.060200
     28 H161         3.9740    -1.4670    -0.9100 hc         1 CP6       0.036700
     29 H162         2.3760    -2.2030    -0.8270 hc         1 CP6       0.036700
     30 H163         3.0190    -1.6720    -2.3800 hc         1 CP6       0.036700
@<TRIPOS>BOND
     1     1     2 ar  
     2     1     3 ar  
     3     2     6 ar  
     4     2    14 1   
     5     3     4 ar  
     6     3    13 1   
     7     4     5 ar  
     8     4     7 1   
     9     5     6 ar  
    10     5    15 1   
    11     7     8 ar  
    12     7    12 ar  
    13     8     9 ar  
    14     8    18 1   
    15     9    10 ar  
    16     9    19 1   
    17    10    11 ar  
    18    10    17 1   
    19    11    12 ar  
    20    11    20 1   
    21    12    21 1   
    22    13    22 1   
    23    13    23 1   
    24    14    24 1   
    25    14    25 1   
    26    15    16 1   
    27    15    26 1   
    28    15    27 1   
    29    16    28 1   
    30    16    29 1   
    31    16    30 1   
@<TRIPOS>SUBSTRUCTURE
     1 CP6         1 TEMP              0 ****  ****    0 ROOT
