@<TRIPOS>MOLECULE
CP7
   30    31     1     0     0
SMALL
abcg2


@<TRIPOS>ATOM
      1 N1          -1.3550     0.1020    -2.2840 nb         1 CP7      -0.335000
      2 C2          -0.1650     0.1270    -2.8820 ca         1 CP7       0.408900
      3 C3          -1.3590     0.1030    -0.9540 ca         1 CP7       0.436900
      4 C4          -0.1590     0.1310    -0.2040 cp         1 CP7      -0.281000
      5 C5           1.0110     0.1580    -0.9430 ca         1 CP7       0.208300
      6 N6           1.0200     0.1560    -2.2790 nb         1 CP7      -0.288000
      7 C7          -0.1930     0.1200     1.2760 cp         1 CP7      -0.014000
      8 C8          -0.1720    -1.0840     1.9800 ca         1 CP7      -0.104500
      9 C9          -0.2100    -1.0950     3.3680 ca         1 CP7      -0.114500
     10 C10         -0.2770     0.1000     4.0720 ca         1 CP7      -0.111000
     11 C11         -0.3080     1.3050     3.3830 ca         1 CP7      -0.114500
     12 C12         -0.2690     1.3140     1.9950 ca         1 CP7      -0.104500
     13 N13         -2.5550     0.0620    -0.3460 nv         1 CP7      -1.084900
     14 N14         -0.1670     0.1640    -4.2390 nv         1 CP7      -1.049900
     15 C15          2.3600     0.1480    -0.2830 c3         1 CP7      -0.134700
     16 C16          2.9510    -1.2610    -0.2460 c3         1 CP7      -0.082100
     17 H8          -0.1220    -2.0180     1.4330 ha         1 CP7       0.117000
     18 H9          -0.1890    -2.0380     3.9000 ha         1 CP7       0.113000
     19 H10         -0.3070     0.0920     5.1540 ha         1 CP7       0.112000
     20 H11         -0.3640     2.2400     3.9270 ha         1 CP7       0.113000
     21 H12         -0.2920     2.2550     1.4590 ha         1 CP7       0.117000
     22 H131        -3.3960     0.1090    -0.8940 hn         1 CP7       0.499000
     23 H132        -2.6390     0.1250     0.6520 hn         1 CP7       0.499000
     24 H141        -1.0120    -0.1100    -4.7110 hn         1 CP7       0.484000
     25 H142         0.6900    -0.0740    -4.7070 hn         1 CP7       0.484000
     26 H151         2.2920     0.5440     0.7300 hc         1 CP7       0.059200
     27 H152         3.0260     0.8050    -0.8450 hc         1 CP7       0.059200
     28 H161         3.9440    -1.2470     0.2020 hc         1 CP7       0.036700
     29 H162         2.3280    -1.9360     0.3420 hc         1 CP7       0.036700
     30 H163         3.0410    -1.6750    -1.2500 hc         1 CP7       0.036700
@<TRIPOS>BOND
     1     1     2 ar  
     2     1     3 ar  
     3     2     6 ar  
     4     2    14 1   
     5     3     4 ar  
     6     3    13 1   
     7     4     5 ar  
     8     4     7 1   
     9     5     6 ar  
    10     5    15 1   
    11     7     8 ar  
    12     7    12 ar  
    13     8     9 ar  
    14     8    17 1   
    15     9    10 ar  
    16     9    18 1   
    17    10    11 ar  
    18    10    19 1   
    19    11    12 ar  
    20    11    20 1   
    21    12    21 1   
    22    13    22 1   
    23    13    23 1   
    24    14    24 1   
    25    14    25 1   
    26    15    16 1   
    27    15    26 1   
    28    15    27 1   
    29    16    28 1   
    30    16    29 1   
    31    16    30 1   
@<TRIPOS>SUBSTRUCTURE
     1 CP7         1 TEMP              0 ****  ****    0 ROOT
