@<TRIPOS>MOLECULE
CP7
   30    31     1     0     0
SMALL
No Charge or Current Charge


@<TRIPOS>ATOM
      1 N1          -1.4160    -0.0310    -2.3400 nb         1 CP7      -0.335000
      2 C2          -0.2350     0.1260    -2.9390 ca         1 CP7       0.408900
      3 C3          -1.3830    -0.0580    -1.0070 ca         1 CP7       0.436900
      4 C4          -0.1960     0.0780    -0.2550 cp         1 CP7      -0.281000
      5 C5           0.9950     0.2360    -1.0170 ca         1 CP7       0.208300
      6 N6           0.9650     0.2570    -2.3650 nb         1 CP7      -0.288000
      7 C7          -0.1940     0.0460     1.2370 cp         1 CP7      -0.014000
      8 C8          -0.5070    -1.1450     1.9350 ca         1 CP7      -0.104500
      9 C9          -0.5070    -1.1790     3.3400 ca         1 CP7      -0.114500
     10 C10         -0.1970    -0.0200     4.0700 ca         1 CP7      -0.111000
     11 C11          0.1110     1.1730     3.3950 ca         1 CP7      -0.114500
     12 C12          0.1100     1.2050     1.9890 ca         1 CP7      -0.104500
     13 N13         -2.5950    -0.2060    -0.4200 nv         1 CP7      -1.084900
     14 N14         -0.2570     0.1500    -4.2900 nv         1 CP7      -1.049900
     15 C15          2.3830     0.3540    -0.3920 c3         1 CP7      -0.134700
     16 C16          2.9410    -1.0050     0.0760 c3         1 CP7      -0.082100
     17 H8          -0.7450    -2.0470     1.3760 ha         1 CP7       0.117000
     18 H9          -0.7460    -2.1030     3.8610 ha         1 CP7       0.113000
     19 H10         -0.1970    -0.0450     5.1580 ha         1 CP7       0.112000
     20 H11          0.3480     2.0730     3.9590 ha         1 CP7       0.113000
     21 H12          0.3440     2.1340     1.4740 ha         1 CP7       0.117000
     22 H131        -3.4220    -0.0370    -0.9860 hn         1 CP7       0.499000
     23 H132        -2.6690    -0.0040     0.5730 hn         1 CP7       0.499000
     24 H141        -1.1000    -0.1680    -4.7620 hn         1 CP7       0.484000
     25 H142         0.6210     0.0400    -4.7920 hn         1 CP7       0.484000
     26 H151         2.3640     1.0440     0.4580 hc         1 CP7       0.059200
     27 H152         3.0880     0.7910    -1.1100 hc         1 CP7       0.059200
     28 H161         3.9440    -0.8820     0.5010 hc         1 CP7       0.036700
     29 H162         2.2970    -1.4490     0.8430 hc         1 CP7       0.036700
     30 H163         3.0090    -1.7050    -0.7660 hc         1 CP7       0.036700
@<TRIPOS>BOND
     1     1     2 ar  
     2     1     3 ar  
     3     2     6 ar  
     4     2    14 1   
     5     3     4 ar  
     6     3    13 1   
     7     4     5 ar  
     8     4     7 1   
     9     5     6 ar  
    10     5    15 1   
    11     7     8 ar  
    12     7    12 ar  
    13     8     9 ar  
    14     8    17 1   
    15     9    10 ar  
    16     9    18 1   
    17    10    11 ar  
    18    10    19 1   
    19    11    12 ar  
    20    11    20 1   
    21    12    21 1   
    22    13    22 1   
    23    13    23 1   
    24    14    24 1   
    25    14    25 1   
    26    15    16 1   
    27    15    26 1   
    28    15    27 1   
    29    16    28 1   
    30    16    29 1   
    31    16    30 1   
@<TRIPOS>SUBSTRUCTURE
     1 CP7         1 TEMP              0 ****  ****    0 ROOT
