@<TRIPOS>MOLECULE
CP8
   46    49     1     0     0
SMALL
No Charge or Current Charge


@<TRIPOS>ATOM
      1 C1           0.2220    -0.6490     3.0760 ca         1 CP8       0.282000
      2 C2          -0.2380     0.2670     2.1340 ca         1 CP8      -0.127300
      3 N3          -0.4850    -0.6080     4.2800 nh         1 CP8      -0.717300
      4 C4           1.2860    -1.5130     2.7710 ca         1 CP8      -0.130000
      5 C5           0.3590     0.3510     0.8650 ca         1 CP8      -0.017000
      6 C6          -1.4030     1.1150     2.6110 c5         1 CP8      -0.242100
      7 S7          -1.4570     0.8110     4.4520 s6         1 CP8       1.159100
      8 C8          -0.0410    -1.3020     5.5010 c3         1 CP8       0.193100
      9 C9           1.8930    -1.4380     1.5030 ca         1 CP8      -0.060000
     10 C10          1.4340    -0.5070     0.5450 ca         1 CP8      -0.113300
     11 O11         -2.7860     0.3870     4.9060 o          1 CP8      -0.517500
     12 O12         -0.6630     1.7930     5.2000 o          1 CP8      -0.517500
     13 C13          2.0910    -0.4370    -0.8360 c6         1 CP8       0.205600
     14 C14          1.1550    -0.9640    -1.9670 c6         1 CP8       0.075000
     15 O15          2.4960     0.9260    -1.0880 os         1 CP8      -0.433000
     16 N16          1.4780    -0.4660    -3.3390 n          1 CP8      -0.401800
     17 C17          3.2170     1.0520    -2.3360 c6         1 CP8       0.070600
     18 C18          0.6430    -0.9760    -4.4500 c3         1 CP8       0.142300
     19 C19          2.3300     0.6460    -3.5340 c          1 CP8       0.536000
     20 C20         -0.8050    -0.5060    -4.3790 ca         1 CP8      -0.117300
     21 O21          2.3260     1.2960    -4.5730 o          1 CP8      -0.563000
     22 C22         -1.1580     0.7780    -4.8380 ca         1 CP8      -0.096000
     23 C23         -1.8010    -1.3480    -3.8450 ca         1 CP8      -0.096000
     24 C24         -2.4920     1.2160    -4.7640 ca         1 CP8      -0.113000
     25 C25         -3.1350    -0.9100    -3.7710 ca         1 CP8      -0.113000
     26 C26         -3.4810     0.3720    -4.2300 ca         1 CP8      -0.103000
     27 H4           1.6420    -2.2340     3.5010 ha         1 CP8       0.129000
     28 H5          -0.0070     1.0720     0.1380 ha         1 CP8       0.135000
     29 H6C1        -1.2670     2.1910     2.4600 h1         1 CP8       0.117200
     30 H6C2        -2.3630     0.7780     2.2070 h1         1 CP8       0.117200
     31 H8C1        -0.7540    -1.1480     6.3220 h1         1 CP8       0.055700
     32 H8C2         0.0340    -2.3830     5.3230 h1         1 CP8       0.055700
     33 H8C3         0.9390    -0.9260     5.8230 h1         1 CP8       0.055700
     34 H9           2.7180    -2.1070     1.2650 ha         1 CP8       0.117000
     35 H13          3.0000    -1.0570    -0.8260 h1         1 CP8       0.050700
     36 H141         1.1770    -2.0620    -1.9630 h1         1 CP8       0.056700
     37 H142         0.1240    -0.6660    -1.7330 h1         1 CP8       0.056700
     38 H171         4.1040     0.4030    -2.3300 h1         1 CP8       0.079200
     39 H172         3.5320     2.0950    -2.4780 h1         1 CP8       0.079200
     40 H181         1.0750    -0.6770    -5.4150 h1         1 CP8       0.067200
     41 H182         0.6690    -2.0730    -4.4270 h1         1 CP8       0.067200
     42 H22         -0.3980     1.4390    -5.2500 ha         1 CP8       0.117500
     43 H23         -1.5430    -2.3410    -3.4840 ha         1 CP8       0.117500
     44 H24         -2.7590     2.2090    -5.1190 ha         1 CP8       0.114000
     45 H25         -3.9000    -1.5630    -3.3570 ha         1 CP8       0.114000
     46 H26         -4.5130     0.7110    -4.1720 ha         1 CP8       0.113000
@<TRIPOS>BOND
     1     1     2 ar  
     2     1     3 1   
     3     1     4 ar  
     4     2     5 ar  
     5     2     6 1   
     6     3     7 1   
     7     3     8 1   
     8     4     9 ar  
     9     4    27 1   
    10     5    10 ar  
    11     5    28 1   
    12     6     7 1   
    13     6    29 1   
    14     6    30 1   
    15     7    11 2   
    16     7    12 2   
    17     8    31 1   
    18     8    32 1   
    19     8    33 1   
    20     9    10 ar  
    21     9    34 1   
    22    10    13 1   
    23    13    14 1   
    24    13    15 1   
    25    13    35 1   
    26    14    16 1   
    27    14    36 1   
    28    14    37 1   
    29    15    17 1   
    30    16    18 1   
    31    16    19 1   
    32    17    19 1   
    33    17    38 1   
    34    17    39 1   
    35    18    20 1   
    36    18    40 1   
    37    18    41 1   
    38    19    21 2   
    39    20    22 ar  
    40    20    23 ar  
    41    22    24 ar  
    42    22    42 1   
    43    23    25 ar  
    44    23    43 1   
    45    24    26 ar  
    46    24    44 1   
    47    25    26 ar  
    48    25    45 1   
    49    26    46 1   
@<TRIPOS>SUBSTRUCTURE
     1 CP8         1 TEMP              0 ****  ****    0 ROOT
