@<TRIPOS>MOLECULE
CP8
   46    49     1     0     0
SMALL
abcg2


@<TRIPOS>ATOM
      1 C1           0.2670    -0.7050     3.1680 ca         1 CP8       0.282000
      2 C2          -0.2600     0.2560     2.2990 ca         1 CP8      -0.127300
      3 N3          -0.3570    -0.7190     4.4160 nh         1 CP8      -0.717300
      4 C4           1.3070    -1.5230     2.7670 ca         1 CP8      -0.130000
      5 C5           0.2520     0.4050     1.0290 ca         1 CP8      -0.017000
      6 C6          -1.3860     1.0260     2.9140 c5         1 CP8      -0.242100
      7 S7          -1.1130     0.7670     4.6730 s6         1 CP8       1.159100
      8 C8           0.2350    -1.3920     5.5570 c3         1 CP8       0.193100
      9 C9           1.8020    -1.3740     1.4750 ca         1 CP8      -0.060000
     10 C10          1.2920    -0.4240     0.6010 ca         1 CP8      -0.113300
     11 O11         -2.3320     0.5510     5.4290 o          1 CP8      -0.517500
     12 O12         -0.1630     1.7440     5.1830 o          1 CP8      -0.517500
     13 C13          1.8480    -0.2940    -0.7870 c6         1 CP8       0.205600
     14 C14          0.8470    -0.7590    -1.8300 c6         1 CP8       0.075000
     15 O15          2.1620     1.0590    -1.0330 os         1 CP8      -0.433000
     16 N16          1.3110    -0.4650    -3.1750 n          1 CP8      -0.401800
     17 C17          2.8330     1.2140    -2.2540 c6         1 CP8       0.070600
     18 C18          0.6200    -1.1530    -4.2530 c3         1 CP8       0.142300
     19 C19          2.2200     0.4890    -3.4390 c          1 CP8       0.536000
     20 C20         -0.7690    -0.6100    -4.4740 ca         1 CP8      -0.117300
     21 O21          2.6010     0.7770    -4.5660 o          1 CP8      -0.563000
     22 C22         -0.9510     0.6660    -5.0080 ca         1 CP8      -0.096000
     23 C23         -1.8880    -1.3600    -4.1290 ca         1 CP8      -0.096000
     24 C24         -2.2260     1.1770    -5.1910 ca         1 CP8      -0.113000
     25 C25         -3.1680    -0.8500    -4.3120 ca         1 CP8      -0.113000
     26 C26         -3.3400     0.4200    -4.8420 ca         1 CP8      -0.103000
     27 H4           1.7380    -2.2600     3.4320 ha         1 CP8       0.129000
     28 H5          -0.1580     1.1650     0.3740 ha         1 CP8       0.135000
     29 H6C1        -1.3830     2.0950     2.7070 h1         1 CP8       0.117200
     30 H6C2        -2.3620     0.6050     2.6680 h1         1 CP8       0.117200
     31 H8C1        -0.4190    -1.2870     6.4200 h1         1 CP8       0.055700
     32 H8C2         0.3130    -2.4550     5.3380 h1         1 CP8       0.055700
     33 H8C3         1.2240    -1.0040     5.8030 h1         1 CP8       0.055700
     34 H9           2.6180    -2.0090     1.1530 ha         1 CP8       0.117000
     35 H13          2.7550    -0.9130    -0.8660 h1         1 CP8       0.050700
     36 H141         0.7120    -1.8390    -1.7390 h1         1 CP8       0.056700
     37 H142        -0.1300    -0.2960    -1.6540 h1         1 CP8       0.056700
     38 H171         3.8780     0.8800    -2.1810 h1         1 CP8       0.079200
     39 H172         2.8480     2.2790    -2.4890 h1         1 CP8       0.079200
     40 H181         1.2170    -1.0690    -5.1590 h1         1 CP8       0.067200
     41 H182         0.5690    -2.2140    -3.9990 h1         1 CP8       0.067200
     42 H22         -0.0890     1.2590    -5.2900 ha         1 CP8       0.117500
     43 H23         -1.7610    -2.3540    -3.7160 ha         1 CP8       0.117500
     44 H24         -2.3550     2.1660    -5.6120 ha         1 CP8       0.114000
     45 H25         -4.0300    -1.4460    -4.0400 ha         1 CP8       0.114000
     46 H26         -4.3350     0.8200    -4.9870 ha         1 CP8       0.113000
@<TRIPOS>BOND
     1     1     2 ar  
     2     1     3 1   
     3     1     4 ar  
     4     2     5 ar  
     5     2     6 1   
     6     3     7 1   
     7     3     8 1   
     8     4     9 ar  
     9     4    27 1   
    10     5    10 ar  
    11     5    28 1   
    12     6     7 1   
    13     6    29 1   
    14     6    30 1   
    15     7    11 2   
    16     7    12 2   
    17     8    31 1   
    18     8    32 1   
    19     8    33 1   
    20     9    10 ar  
    21     9    34 1   
    22    10    13 1   
    23    13    14 1   
    24    13    15 1   
    25    13    35 1   
    26    14    16 1   
    27    14    36 1   
    28    14    37 1   
    29    15    17 1   
    30    16    18 1   
    31    16    19 1   
    32    17    19 1   
    33    17    38 1   
    34    17    39 1   
    35    18    20 1   
    36    18    40 1   
    37    18    41 1   
    38    19    21 2   
    39    20    22 ar  
    40    20    23 ar  
    41    22    24 ar  
    42    22    42 1   
    43    23    25 ar  
    44    23    43 1   
    45    24    26 ar  
    46    24    44 1   
    47    25    26 ar  
    48    25    45 1   
    49    26    46 1   
@<TRIPOS>SUBSTRUCTURE
     1 CP8         1 TEMP              0 ****  ****    0 ROOT
