@<TRIPOS>MOLECULE
CP9
   43    47     1     0     0
SMALL
bcc


@<TRIPOS>ATOM
      1 S1          -1.9320    -0.8160    -4.8330 ss         1 CP9      -0.137500
      2 C2          -2.3040     0.4340    -3.6260 c          1 CP9       0.719100
      3 N3          -1.1390     0.9340    -3.1180 n          1 CP9      -0.367000
      4 C4           0.0240     0.3790    -3.6290 ca         1 CP9       0.048600
      5 C5          -0.2190    -0.6040    -4.5870 ca         1 CP9      -0.051100
      6 C6           0.8200    -1.2710    -5.2110 ca         1 CP9      -0.063000
      7 C7           2.1230    -0.9380    -4.8620 ca         1 CP9      -0.145000
      8 C8           2.3680     0.0450    -3.9080 ca         1 CP9      -0.096000
      9 C9           1.3250     0.7130    -3.2820 ca         1 CP9      -0.141000
     10 C10         -1.1270     1.9600    -2.0950 c3         1 CP9       0.146300
     11 C11         -0.6480     1.4470    -0.7600 ca         1 CP9      -0.101300
     12 C12          0.1570     2.2500     0.0390 ca         1 CP9      -0.108000
     13 C13          0.5830     1.8130     1.2840 ca         1 CP9      -0.119000
     14 C14          0.2200     0.5500     1.7250 ca         1 CP9       0.000800
     15 C15         -0.5830    -0.2650     0.9370 ca         1 CP9      -0.119000
     16 C16         -1.0180     0.1890    -0.2970 ca         1 CP9      -0.108000
     17 N17          0.6610     0.0850     2.9880 na         1 CP9      -0.097400
     18 C18          1.9520    -0.2290     3.3520 cc         1 CP9       0.434800
     19 N19          2.0360    -0.6430     4.5830 nd         1 CP9      -0.557100
     20 C20          0.7510    -0.6080     5.0690 ca         1 CP9      -0.052900
     21 C21         -0.1290    -0.1580     4.0780 ca         1 CP9      -0.045200
     22 C22         -1.4880    -0.0350     4.3250 ca         1 CP9      -0.244300
     23 C23         -1.8870    -0.3900     5.6020 ca         1 CP9       0.406200
     24 N24         -1.0650    -0.8240     6.5680 nb         1 CP9      -0.684000
     25 C25          0.2290    -0.9330     6.3160 ca         1 CP9       0.468200
     26 C26          3.0840    -0.1090     2.4020 c3         1 CP9      -0.113400
     27 O27         -3.4250     0.7640    -3.3210 o          1 CP9      -0.568500
     28 H6           0.6240    -2.0320    -5.9540 ha         1 CP9       0.147000
     29 H7           2.9490    -1.4490    -5.3370 ha         1 CP9       0.139000
     30 H8           3.3870     0.2940    -3.6440 ha         1 CP9       0.137000
     31 H9           1.5320     1.4730    -2.5400 ha         1 CP9       0.143000
     32 H101        -2.1420     2.3490    -2.0060 h1         1 CP9       0.077200
     33 H102        -0.5050     2.7900    -2.4320 h1         1 CP9       0.077200
     34 H12          0.4560     3.2320    -0.3070 ha         1 CP9       0.143000
     35 H13          1.1990     2.4510     1.9050 ha         1 CP9       0.151000
     36 H15         -0.8600    -1.2530     1.2820 ha         1 CP9       0.151000
     37 H16         -1.6410    -0.4600    -0.9010 ha         1 CP9       0.143000
     38 H22         -2.2000     0.3070     3.5870 ha         1 CP9       0.150000
     39 H23         -2.9360    -0.3220     5.8670 h4         1 CP9       0.019100
     40 H25          0.8700    -1.2870     7.1160 h4         1 CP9       0.034100
     41 H261         2.8630    -0.6150     1.4610 hc         1 CP9       0.061367
     42 H262         3.3030     0.9340     2.1700 hc         1 CP9       0.061367
     43 H263         3.9720    -0.5560     2.8390 hc         1 CP9       0.061367
@<TRIPOS>BOND
     1     1     2 1   
     2     1     5 1   
     3     2     3 1   
     4     2    27 2   
     5     3     4 1   
     6     3    10 1   
     7     4     5 ar  
     8     4     9 ar  
     9     5     6 ar  
    10     6     7 ar  
    11     6    28 1   
    12     7     8 ar  
    13     7    29 1   
    14     8     9 ar  
    15     8    30 1   
    16     9    31 1   
    17    10    11 1   
    18    10    32 1   
    19    10    33 1   
    20    11    12 ar  
    21    11    16 ar  
    22    12    13 ar  
    23    12    34 1   
    24    13    14 ar  
    25    13    35 1   
    26    14    15 ar  
    27    14    17 1   
    28    15    16 ar  
    29    15    36 1   
    30    16    37 1   
    31    17    18 1   
    32    17    21 1   
    33    18    19 2   
    34    18    26 1   
    35    19    20 1   
    36    20    21 ar  
    37    20    25 ar  
    38    21    22 ar  
    39    22    23 ar  
    40    22    38 1   
    41    23    24 ar  
    42    23    39 1   
    43    24    25 ar  
    44    25    40 1   
    45    26    41 1   
    46    26    42 1   
    47    26    43 1   
@<TRIPOS>SUBSTRUCTURE
     1 CP9         1 TEMP              0 ****  ****    0 ROOT
