@<TRIPOS>MOLECULE
CP9
   43    47     1     0     0
SMALL
No Charge or Current Charge


@<TRIPOS>ATOM
      1 S1          -1.6120    -1.0860    -4.9250 ss         1 CP9      -0.010600
      2 C2          -2.2390     0.1180    -3.6930 c          1 CP9       0.576600
      3 N3          -1.1500     0.8370    -3.1670 n          1 CP9      -0.300000
      4 C4           0.1310     0.4760    -3.6660 ca         1 CP9       0.048600
      5 C5           0.0530    -0.5210    -4.6290 ca         1 CP9      -0.178000
      6 C6           1.2000    -0.9870    -5.2900 ca         1 CP9      -0.045000
      7 C7           2.4440    -0.4070    -4.9730 ca         1 CP9      -0.127000
      8 C8           2.5230     0.6320    -4.0220 ca         1 CP9      -0.078000
      9 C9           1.3600     1.0900    -3.3710 ca         1 CP9      -0.123000
     10 C10         -1.3250     1.8000    -2.0590 c3         1 CP9       0.146300
     11 C11         -0.8360     1.2700    -0.7150 ca         1 CP9      -0.101300
     12 C12          0.1670     1.9530     0.0010 ca         1 CP9      -0.090000
     13 C13          0.6220     1.4570     1.2340 ca         1 CP9      -0.101000
     14 C14          0.0790     0.2710     1.7640 ca         1 CP9       0.000800
     15 C15         -0.9310    -0.4050     1.0580 ca         1 CP9      -0.101000
     16 C16         -1.3870     0.0910    -0.1750 ca         1 CP9      -0.090000
     17 N17          0.5270    -0.2290     2.9840 na         1 CP9      -0.097400
     18 C18          1.8470    -0.6100     3.2390 cc         1 CP9       0.434800
     19 N19          2.0290    -0.8000     4.5660 nd         1 CP9      -0.557100
     20 C20          0.7760    -0.4930     5.1280 ca         1 CP9       0.012400
     21 C21         -0.1280    -0.1400     4.1690 ca         1 CP9      -0.045200
     22 C22         -1.4410     0.2180     4.4930 ca         1 CP9      -0.161000
     23 C23         -1.7840     0.1910     5.8610 ca         1 CP9       0.340900
     24 N24         -0.9070    -0.1590     6.8450 nb         1 CP9      -0.684000
     25 C25          0.3640    -0.4990     6.4810 ca         1 CP9       0.402900
     26 C26          2.9160    -0.7870     2.1980 c3         1 CP9      -0.113400
     27 O27         -3.4110     0.2680    -3.3700 o          1 CP9      -0.493000
     28 H6           1.1290    -1.7740    -6.0390 ha         1 CP9       0.129000
     29 H7           3.3450    -0.7530    -5.4750 ha         1 CP9       0.121000
     30 H8           3.4860     1.0860    -3.7940 ha         1 CP9       0.119000
     31 H9           1.4260     1.9010    -2.6510 ha         1 CP9       0.125000
     32 H101        -2.3840     2.0730    -1.9660 h1         1 CP9       0.077200
     33 H102        -0.7870     2.7230    -2.3130 h1         1 CP9       0.077200
     34 H12          0.5970     2.8710    -0.3960 ha         1 CP9       0.125000
     35 H13          1.3940     1.9960     1.7780 ha         1 CP9       0.133000
     36 H15         -1.3610    -1.3190     1.4640 ha         1 CP9       0.133000
     37 H16         -2.1670    -0.4440    -0.7120 ha         1 CP9       0.125000
     38 H22         -2.1660     0.5010     3.7360 ha         1 CP9       0.132000
     39 H23         -2.7900     0.4570     6.1830 h4         1 CP9       0.019100
     40 H25          1.0530    -0.7740     7.2790 h4         1 CP9       0.034100
     41 H261         2.5060    -1.2490     1.2920 hc         1 CP9       0.061367
     42 H262         3.3510     0.1810     1.9230 hc         1 CP9       0.061367
     43 H263         3.7220    -1.4290     2.5700 hc         1 CP9       0.061367
@<TRIPOS>BOND
     1     1     2 1   
     2     1     5 1   
     3     2     3 1   
     4     2    27 2   
     5     3     4 1   
     6     3    10 1   
     7     4     5 ar  
     8     4     9 ar  
     9     5     6 ar  
    10     6     7 ar  
    11     6    28 1   
    12     7     8 ar  
    13     7    29 1   
    14     8     9 ar  
    15     8    30 1   
    16     9    31 1   
    17    10    11 1   
    18    10    32 1   
    19    10    33 1   
    20    11    12 ar  
    21    11    16 ar  
    22    12    13 ar  
    23    12    34 1   
    24    13    14 ar  
    25    13    35 1   
    26    14    15 ar  
    27    14    17 1   
    28    15    16 ar  
    29    15    36 1   
    30    16    37 1   
    31    17    18 1   
    32    17    21 1   
    33    18    19 2   
    34    18    26 1   
    35    19    20 1   
    36    20    21 ar  
    37    20    25 ar  
    38    21    22 ar  
    39    22    23 ar  
    40    22    38 1   
    41    23    24 ar  
    42    23    39 1   
    43    24    25 ar  
    44    25    40 1   
    45    26    41 1   
    46    26    42 1   
    47    26    43 1   
@<TRIPOS>SUBSTRUCTURE
     1 CP9         1 TEMP              0 ****  ****    0 ROOT
