@<TRIPOS>MOLECULE
CPA
   61    65     1     0     0
SMALL
abcg2


@<TRIPOS>ATOM
      1 P           30.3060    18.0020     6.2320 p5         1 CPA       1.379800
      2 O1P         30.8610    18.8520     7.3250 o          1 CPA      -0.803000
      3 O2P         28.8690    18.0760     5.8390 o          1 CPA      -0.803000
      4 O5D         34.6170    15.0270     6.9850 oh         1 CPA      -0.731000
      5 C5X         33.8840    14.9410     5.7620 c3         1 CPA       0.144600
      6 C4X         32.4000    14.8990     6.0550 c5         1 CPA       0.147300
      7 O4D         32.0430    13.6620     6.7050 os         1 CPA      -0.484000
      8 C3X         31.8950    16.0220     6.9720 c5         1 CPA       0.213300
      9 O3D         30.5860    16.4270     6.5440 os         1 CPA      -0.597400
     10 C2X         31.8100    15.3510     8.3340 c5         1 CPA      -0.120400
     11 C1X         31.4580    13.9070     7.9820 c5         1 CPA       0.322700
     12 N1C         31.9690    12.9170     8.9280 n          1 CPA      -0.311000
     13 CC2         31.0700    12.1510     9.7040 c          1 CPA       0.712400
     14 N3C         31.5900    11.2370    10.5600 nc         1 CPA      -0.781100
     15 CC4         32.9040    11.0800    10.6750 cd         1 CPA       0.779500
     16 CC5         33.8330    11.8470     9.9080 cd         1 CPA      -0.518600
     17 CC6         33.3130    12.7500     9.0490 cc         1 CPA       0.046600
     18 O2C         29.8550    12.3360     9.5860 o          1 CPA      -0.551000
     19 N4C         33.3540    10.1680    11.5490 nv         1 CPA      -1.050200
     20 O5B         31.2730    18.2740     4.9490 os         1 CPA      -0.586400
     21 C5B         30.9970    17.6390     3.6990 c3         1 CPA       0.216600
     22 C4B         30.2890    18.5910     2.7510 c5         1 CPA       0.139300
     23 O4B         31.0650    19.7930     2.5590 os         1 CPA      -0.427000
     24 C3B         30.0930    17.9980     1.3570 c5         1 CPA       0.136300
     25 O3B         28.9030    18.5730     0.8120 oh         1 CPA      -0.704000
     26 C2B         31.3450    18.4690     0.6230 c5         1 CPA      -0.157400
     27 C1B         31.5780    19.8510     1.2300 c5         1 CPA       0.311300
     28 N9A         32.9660    20.2680     1.2720 na         1 CPA      -0.289300
     29 C8A         34.0320    19.5950     1.8290 cc         1 CPA       0.436700
     30 N7A         35.1530    20.2700     1.7790 nd         1 CPA      -0.574100
     31 C5A         34.8170    21.4620     1.1580 ca         1 CPA      -0.092600
     32 C6A         35.5630    22.6040     0.8120 ca         1 CPA       0.438900
     33 N6A         36.8750    22.7280     1.0760 nv         1 CPA      -1.072900
     34 N1A         34.9190    23.6200     0.2050 nb         1 CPA      -0.306000
     35 C2A         33.6090    23.5050    -0.0370 ca         1 CPA       0.167900
     36 N3A         32.8050    22.4810     0.2430 nb         1 CPA      -0.210000
     37 C4A         33.4600    21.4810     0.8430 ca         1 CPA       0.137500
     38 HO5C        35.5590    14.9820     6.7800 ho         1 CPA       0.494000
     39 H51C        34.0820    15.8120     5.1280 h1         1 CPA       0.030200
     40 H52C        34.1610    14.0390     5.2070 h1         1 CPA       0.030200
     41 H3D         32.5690    16.8750     6.9750 h1         1 CPA       0.079700
     42 H21C        32.7820    15.3910     8.8230 hc         1 CPA       0.075700
     43 H22C        31.0660    15.8150     8.9770 hc         1 CPA       0.075700
     44 H1D         30.3850    13.7510     7.9380 h2         1 CPA       0.121700
     45 H5C         34.8990    11.7090    10.0050 ha         1 CPA       0.190000
     46 H6C         33.9250    13.3750     8.4110 h4         1 CPA       0.230000
     47 H41C        34.3380     9.9850    11.6480 hn         1 CPA       0.494000
     48 H42C        32.6990     9.6080    12.0690 hn         1 CPA       0.494000
     49 H51A        31.9550    17.3220     3.2850 h1         1 CPA       0.020700
     50 H52A        30.3740    16.7530     3.8410 h1         1 CPA       0.020700
     51 H4B         29.3320    18.8820     3.1840 h1         1 CPA       0.131700
     52 H3B         30.0130    16.9090     1.3830 h1         1 CPA       0.053700
     53 HO3A        28.8030    18.2590    -0.0960 ho         1 CPA       0.492000
     54 H21A        32.1800    17.8050     0.8430 hc         1 CPA       0.059700
     55 H22A        31.2110    18.5110    -0.4570 hc         1 CPA       0.059700
     56 H1B         31.0570    20.6290     0.6720 h2         1 CPA       0.100700
     57 H8A         33.9140    18.6150     2.2630 h5         1 CPA       0.072800
     58 H61A        37.3760    23.5310     0.7330 hn         1 CPA       0.500500
     59 H62A        37.3970    21.9510     1.4430 hn         1 CPA       0.500500
     60 H2A         33.1470    24.3560    -0.5260 h5         1 CPA       0.040100
     61 H4D         31.8700    14.9460     5.1010 h1         1 CPA       0.076700
@<TRIPOS>BOND
     1     1     2 1   
     2     1     3 1   
     3     1     9 1   
     4     1    20 1   
     5     4     5 1   
     6     4    38 1   
     7     5     6 1   
     8     5    39 1   
     9     5    40 1   
    10     6     7 1   
    11     6     8 1   
    12     6    61 1   
    13     7    11 1   
    14     8     9 1   
    15     8    10 1   
    16     8    41 1   
    17    10    11 1   
    18    10    42 1   
    19    10    43 1   
    20    11    12 1   
    21    11    44 1   
    22    12    13 1   
    23    12    17 1   
    24    13    14 1   
    25    13    18 2   
    26    14    15 2   
    27    15    16 1   
    28    15    19 1   
    29    16    17 2   
    30    16    45 1   
    31    17    46 1   
    32    19    47 1   
    33    19    48 1   
    34    20    21 1   
    35    21    22 1   
    36    21    49 1   
    37    21    50 1   
    38    22    23 1   
    39    22    24 1   
    40    22    51 1   
    41    23    27 1   
    42    24    25 1   
    43    24    26 1   
    44    24    52 1   
    45    25    53 1   
    46    26    27 1   
    47    26    54 1   
    48    26    55 1   
    49    27    28 1   
    50    27    56 1   
    51    28    29 1   
    52    28    37 1   
    53    29    30 2   
    54    29    57 1   
    55    30    31 1   
    56    31    32 ar  
    57    31    37 ar  
    58    32    33 1   
    59    32    34 ar  
    60    33    58 1   
    61    33    59 1   
    62    34    35 ar  
    63    35    36 ar  
    64    35    60 1   
    65    36    37 ar  
@<TRIPOS>SUBSTRUCTURE
     1 CPA         1 TEMP              0 ****  ****    0 ROOT
