@<TRIPOS>MOLECULE
CPA
   61    65     1     0     0
SMALL
No Charge or Current Charge


@<TRIPOS>ATOM
      1 P           30.9260    18.5410     5.9430 p5         1 CPA       1.379800
      2 O1P         31.8370    19.5830     6.4960 o          1 CPA      -0.803000
      3 O2P         29.5180    19.0260     5.8630 o          1 CPA      -0.803000
      4 O5D         35.3220    16.9430     7.1390 oh         1 CPA      -0.731000
      5 C5X         34.5530    16.7420     5.9360 c3         1 CPA       0.144600
      6 C4X         33.1760    16.0800     6.2250 c5         1 CPA       0.147300
      7 O4D         33.3510    14.7150     6.6790 os         1 CPA      -0.484000
      8 C3X         32.3010    16.7870     7.3350 c5         1 CPA       0.213300
      9 O3D         31.0090    17.1700     6.7990 os         1 CPA      -0.597400
     10 C2X         32.0310    15.6570     8.3680 c5         1 CPA      -0.120400
     11 C1X         32.1900    14.4140     7.4630 c5         1 CPA       0.322700
     12 N1C         32.4150    13.2170     8.3110 n          1 CPA      -0.311000
     13 CC2         31.4030    12.2420     8.3800 c          1 CPA       0.712400
     14 N3C         31.5870    11.1690     9.2120 nc         1 CPA      -0.781100
     15 CC4         32.6600    11.0770     9.9200 cd         1 CPA       0.779500
     16 CC5         33.7100    12.0140     9.9100 cd         1 CPA      -0.518600
     17 CC6         33.5690    13.1050     9.0840 cc         1 CPA       0.046600
     18 O2C         30.3740    12.3250     7.7310 o          1 CPA      -0.551000
     19 N4C         32.7410    10.0050    10.6790 nv         1 CPA      -1.050200
     20 O5B         31.4540    17.9780     4.5280 os         1 CPA      -0.586400
     21 C5B         30.5610    17.3020     3.6270 c3         1 CPA       0.216600
     22 C4B         29.6930    18.3220     2.8120 c5         1 CPA       0.139300
     23 O4B         30.4090    19.5570     2.5370 os         1 CPA      -0.427000
     24 C3B         29.2950    17.8200     1.3900 c5         1 CPA       0.136300
     25 O3B         28.2030    18.5550     0.8260 oh         1 CPA      -0.704000
     26 C2B         30.6180    18.0980     0.6260 c5         1 CPA      -0.157400
     27 C1B         31.1260    19.4190     1.2910 c5         1 CPA       0.311300
     28 N9A         32.5610    19.5570     1.5370 na         1 CPA      -0.289300
     29 C8A         33.4350    18.5440     1.9480 cc         1 CPA       0.436700
     30 N7A         34.7040    18.9900     2.0370 nd         1 CPA      -0.574100
     31 C5A         34.5950    20.3370     1.6760 ca         1 CPA      -0.092600
     32 C6A         35.5960    21.3270     1.5840 ca         1 CPA       0.438900
     33 N6A         36.9050    21.0770     1.8570 nv         1 CPA      -1.072900
     34 N1A         35.3010    22.5800     1.2040 nb         1 CPA      -0.306000
     35 C2A         33.9970    22.8270     0.9260 ca         1 CPA       0.167900
     36 N3A         32.9730    21.9420     0.9890 nb         1 CPA      -0.210000
     37 C4A         33.3040    20.6920     1.3720 ca         1 CPA       0.137500
     38 HO5C        36.2000    17.2960     6.8650 ho         1 CPA       0.494000
     39 H51C        34.3740    17.7050     5.4400 h1         1 CPA       0.030200
     40 H52C        35.1050    16.1070     5.2290 h1         1 CPA       0.030200
     41 H3D         32.7990    17.6500     7.8000 h1         1 CPA       0.079700
     42 H21C        32.7710    15.6920     9.1740 hc         1 CPA       0.075700
     43 H22C        31.0390    15.7190     8.8270 hc         1 CPA       0.075700
     44 H1D         31.3130    14.2640     6.8170 h2         1 CPA       0.121700
     45 H5C         34.5900    11.8790    10.5270 ha         1 CPA       0.190000
     46 H6C         34.2850    13.9140     8.9430 h4         1 CPA       0.230000
     47 H41C        33.6800     9.7060    10.9070 hn         1 CPA       0.494000
     48 H42C        32.0940     9.2730    10.4210 hn         1 CPA       0.494000
     49 H51A        31.1440    16.6780     2.9400 h1         1 CPA       0.020700
     50 H52A        29.8920    16.6260     4.1750 h1         1 CPA       0.020700
     51 H4B         28.8000    18.5540     3.4080 h1         1 CPA       0.131700
     52 H3B         29.0560    16.7460     1.4000 h1         1 CPA       0.053700
     53 HO3A        27.9990    18.1480    -0.0480 ho         1 CPA       0.492000
     54 H21A        31.3250    17.2710     0.7460 hc         1 CPA       0.059700
     55 H22A        30.4680    18.2170    -0.4530 hc         1 CPA       0.059700
     56 H1B         30.8550    20.2650     0.6460 h2         1 CPA       0.100700
     57 H8A         33.1050    17.5340     2.1560 h5         1 CPA       0.072800
     58 H61A        37.6000    21.7250     1.4960 hn         1 CPA       0.500500
     59 H62A        37.1820    20.1010     1.9320 hn         1 CPA       0.500500
     60 H2A         33.7470    23.8400     0.6180 h5         1 CPA       0.040100
     61 H4D         32.6300    16.0230     5.2770 h1         1 CPA       0.076700
@<TRIPOS>BOND
     1     1     2 1   
     2     1     3 1   
     3     1     9 1   
     4     1    20 1   
     5     4     5 1   
     6     4    38 1   
     7     5     6 1   
     8     5    39 1   
     9     5    40 1   
    10     6     7 1   
    11     6     8 1   
    12     6    61 1   
    13     7    11 1   
    14     8     9 1   
    15     8    10 1   
    16     8    41 1   
    17    10    11 1   
    18    10    42 1   
    19    10    43 1   
    20    11    12 1   
    21    11    44 1   
    22    12    13 1   
    23    12    17 1   
    24    13    14 1   
    25    13    18 2   
    26    14    15 2   
    27    15    16 1   
    28    15    19 1   
    29    16    17 2   
    30    16    45 1   
    31    17    46 1   
    32    19    47 1   
    33    19    48 1   
    34    20    21 1   
    35    21    22 1   
    36    21    49 1   
    37    21    50 1   
    38    22    23 1   
    39    22    24 1   
    40    22    51 1   
    41    23    27 1   
    42    24    25 1   
    43    24    26 1   
    44    24    52 1   
    45    25    53 1   
    46    26    27 1   
    47    26    54 1   
    48    26    55 1   
    49    27    28 1   
    50    27    56 1   
    51    28    29 1   
    52    28    37 1   
    53    29    30 2   
    54    29    57 1   
    55    30    31 1   
    56    31    32 ar  
    57    31    37 ar  
    58    32    33 1   
    59    32    34 ar  
    60    33    58 1   
    61    33    59 1   
    62    34    35 ar  
    63    35    36 ar  
    64    35    60 1   
    65    36    37 ar  
@<TRIPOS>SUBSTRUCTURE
     1 CPA         1 TEMP              0 ****  ****    0 ROOT
