@<TRIPOS>MOLECULE
CPB
   48    51     1     0     0
SMALL
No Charge or Current Charge


@<TRIPOS>ATOM
      1 C1           5.6370     0.1810    -1.6130 c3         1 CPB       0.151100
      2 N1           4.1800    -0.0240    -1.4750 n3         1 CPB      -0.706600
      3 C16          3.4650     1.2390    -1.1320 c6         1 CPB       0.162800
      4 C15          1.9590     0.9850    -0.8750 c6         1 CPB      -0.063400
      5 C14          1.3010     0.2750    -2.1010 c6         1 CPB       0.021600
      6 C13          2.0830    -1.0250    -2.4590 c6         1 CPB       0.181300
      7 C12          3.5830    -0.6720    -2.6830 c6         1 CPB       0.127800
      8 C8          -0.2500     0.0710    -2.0630 ca         1 CPB      -0.176300
      9 C9          -0.9520    -0.3390    -0.8960 ca         1 CPB       0.252100
     10 O1          -0.2230    -0.6770     0.2300 os         1 CPB      -0.201200
     11 C2          -0.8650    -0.4190     1.4190 cc         1 CPB       0.194900
     12 C3          -2.1840    -0.7780     1.5210 cd         1 CPB      -0.366200
     13 C4          -3.0120    -0.9430     0.3430 c          1 CPB       0.603900
     14 O4          -4.1590    -1.3580     0.4280 o          1 CPB      -0.530100
     15 C10         -2.3510    -0.5200    -0.9240 ca         1 CPB      -0.302600
     16 C5          -3.0610    -0.2740    -2.1120 ca         1 CPB       0.266100
     17 O5          -4.4110    -0.3960    -2.1860 oh         1 CPB      -0.483100
     18 C6          -2.3810     0.1150    -3.2630 ca         1 CPB      -0.364000
     19 C7          -0.9960     0.2780    -3.2460 ca         1 CPB       0.229100
     20 O7          -0.3940     0.6340    -4.4130 oh         1 CPB      -0.531100
     21 C21         -0.0540    -0.2470     2.6220 ca         1 CPB      -0.063800
     22 C22         -0.3560     0.7490     3.5800 ca         1 CPB       0.147000
     23 Cl1         -1.7090     1.8590     3.3550 cl         1 CPB      -0.188000
     24 C23          0.4470     0.8960     4.7240 ca         1 CPB      -0.116000
     25 C24          1.5560     0.0580     4.9250 ca         1 CPB      -0.085000
     26 C25          1.8680    -0.9260     3.9740 ca         1 CPB      -0.116000
     27 C26          1.0690    -1.0760     2.8270 ca         1 CPB      -0.063000
     28 O3           1.9940    -1.9950    -1.4060 oh         1 CPB      -0.648000
     29 H11          6.0570     0.6050    -0.6910 h1         1 CPB       0.029700
     30 H12          6.1450    -0.7730    -1.8080 h1         1 CPB       0.029700
     31 H13          5.8610     0.8660    -2.4410 h1         1 CPB       0.029700
     32 H161         3.9040     1.6910    -0.2310 h1         1 CPB       0.030700
     33 H162         3.5740     1.9700    -1.9460 h1         1 CPB       0.030700
     34 H151         1.8870     0.3880     0.0390 hc         1 CPB       0.060200
     35 H152         1.4520     1.9380    -0.6730 hc         1 CPB       0.060200
     36 H141         1.5040     0.9710    -2.9250 hc         1 CPB       0.058700
     37 H131         1.6730    -1.4430    -3.3900 h1         1 CPB       0.031700
     38 H121         3.6700    -0.0080    -3.5550 h1         1 CPB       0.032200
     39 H122         4.1290    -1.5940    -2.9300 h1         1 CPB       0.032200
     40 H31         -2.6900    -0.9000     2.4700 ha         1 CPB       0.221000
     41 HO5         -4.6800    -0.1790    -3.1010 ho         1 CPB       0.465000
     42 H61         -2.9340     0.2920    -4.1820 ha         1 CPB       0.117000
     43 HO7         -1.0920     0.7210    -5.0950 ho         1 CPB       0.473000
     44 H231         0.2100     1.6660     5.4540 ha         1 CPB       0.131000
     45 H241         2.1750     0.1750     5.8120 ha         1 CPB       0.119000
     46 H251         2.7290    -1.5740     4.1240 ha         1 CPB       0.123000
     47 H261         1.3190    -1.8450     2.0970 ha         1 CPB       0.153000
     48 HO3          2.7020    -1.7220    -0.7820 ho         1 CPB       0.438000
@<TRIPOS>BOND
     1     1     2 1   
     2     1    29 1   
     3     1    30 1   
     4     1    31 1   
     5     2     3 1   
     6     2     7 1   
     7     3     4 1   
     8     3    32 1   
     9     3    33 1   
    10     4     5 1   
    11     4    34 1   
    12     4    35 1   
    13     5     6 1   
    14     5     8 1   
    15     5    36 1   
    16     6     7 1   
    17     6    28 1   
    18     6    37 1   
    19     7    38 1   
    20     7    39 1   
    21     8     9 ar  
    22     8    19 ar  
    23     9    10 1   
    24     9    15 ar  
    25    10    11 1   
    26    11    12 2   
    27    11    21 1   
    28    12    13 1   
    29    12    40 1   
    30    13    14 2   
    31    13    15 1   
    32    15    16 ar  
    33    16    17 1   
    34    16    18 ar  
    35    17    41 1   
    36    18    19 ar  
    37    18    42 1   
    38    19    20 1   
    39    20    43 1   
    40    21    22 ar  
    41    21    27 ar  
    42    22    23 1   
    43    22    24 ar  
    44    24    25 ar  
    45    24    44 1   
    46    25    26 ar  
    47    25    45 1   
    48    26    27 ar  
    49    26    46 1   
    50    27    47 1   
    51    28    48 1   
@<TRIPOS>SUBSTRUCTURE
     1 CPB         1 TEMP              0 ****  ****    0 ROOT
