@<TRIPOS>MOLECULE
CPB
   48    51     1     0     0
SMALL
bcc


@<TRIPOS>ATOM
      1 C1           5.4730     0.2890    -1.3270 c3         1 CPB       0.151100
      2 N1           4.0410     0.1490    -1.2120 n3         1 CPB      -0.706600
      3 C16          3.3720     1.4340    -1.2640 c6         1 CPB       0.162800
      4 C15          1.8830     1.2780    -1.0010 c6         1 CPB      -0.063400
      5 C14          1.2790     0.3390    -2.0500 c6         1 CPB       0.021600
      6 C13          2.0250    -0.9990    -2.0800 c6         1 CPB       0.158100
      7 C12          3.5230    -0.7480    -2.2220 c6         1 CPB       0.127800
      8 C8          -0.2230     0.1410    -2.0530 ca         1 CPB      -0.176300
      9 C9          -1.0180    -0.0560    -0.9250 ca         1 CPB       0.252100
     10 O1          -0.3760     0.0140     0.2580 os         1 CPB      -0.201200
     11 C2          -0.9890    -0.2020     1.4260 cc         1 CPB       0.194900
     12 C3          -2.3000    -0.4780     1.4950 cd         1 CPB      -0.316200
     13 C4          -3.1270    -0.5210     0.3030 c          1 CPB       0.603900
     14 O4          -4.3300    -0.7420     0.3780 o          1 CPB      -0.530100
     15 C10         -2.4040    -0.2980    -0.9510 ca         1 CPB      -0.302600
     16 C5          -3.0230    -0.3450    -2.2180 ca         1 CPB       0.266100
     17 O5          -4.3360    -0.5790    -2.2920 oh         1 CPB      -0.444100
     18 C6          -2.2700    -0.1550    -3.3590 ca         1 CPB      -0.382000
     19 C7          -0.8980     0.0770    -3.2760 ca         1 CPB       0.229100
     20 O7          -0.1780     0.2410    -4.3940 oh         1 CPB      -0.492100
     21 C21         -0.0380    -0.1630     2.5500 ca         1 CPB      -0.063800
     22 C22         -0.2980     0.4630     3.7700 ca         1 CPB       0.055400
     23 CL1         -1.7530     1.3640     4.0390 cl         1 CPB      -0.096400
     24 C23          0.6260     0.4300     4.8040 ca         1 CPB      -0.134000
     25 C24          1.8330    -0.2270     4.6310 ca         1 CPB      -0.103000
     26 C25          2.1230    -0.8350     3.4170 ca         1 CPB      -0.134000
     27 C26          1.1990    -0.7950     2.3890 ca         1 CPB      -0.081000
     28 O3           1.6960    -1.7380    -0.9270 oh         1 CPB      -0.585800
     29 H11          5.8510     0.9390    -0.5360 h1         1 CPB       0.029700
     30 H12          5.9570    -0.6830    -1.2180 h1         1 CPB       0.029700
     31 H13          5.7940     0.7160    -2.2910 h1         1 CPB       0.029700
     32 H161         3.8100     2.0860    -0.5030 h1         1 CPB       0.030700
     33 H162         3.5330     1.9350    -2.2370 h1         1 CPB       0.030700
     34 H151         1.7520     0.9140     0.0140 hc         1 CPB       0.060200
     35 H152         1.4020     2.2570    -1.0630 hc         1 CPB       0.060200
     36 H141         1.5230     0.8040    -3.0090 hc         1 CPB       0.058700
     37 H131         1.7090    -1.5430    -2.9820 h1         1 CPB       0.031700
     38 H121         3.7030    -0.3630    -3.2430 h1         1 CPB       0.032200
     39 H122         4.0600    -1.7000    -2.1610 h1         1 CPB       0.032200
     40 H31         -2.7640    -0.6860     2.4480 ha         1 CPB       0.171000
     41 HO5         -4.6120    -0.5960    -3.2160 ho         1 CPB       0.426000
     42 H61         -2.7500    -0.1970    -4.3320 ha         1 CPB       0.135000
     43 HO7         -0.7420     0.1930    -5.1750 ho         1 CPB       0.434000
     44 H231         0.4050     0.9270     5.7390 ha         1 CPB       0.149000
     45 H241         2.5470    -0.2530     5.4430 ha         1 CPB       0.137000
     46 H251         3.0680    -1.3410     3.2710 ha         1 CPB       0.141000
     47 H261         1.4340    -1.2620     1.4410 ha         1 CPB       0.171000
     48 HO3          2.1870    -2.5650    -0.9510 ho         1 CPB       0.399000
@<TRIPOS>BOND
     1     1     2 1   
     2     1    29 1   
     3     1    30 1   
     4     1    31 1   
     5     2     3 1   
     6     2     7 1   
     7     3     4 1   
     8     3    32 1   
     9     3    33 1   
    10     4     5 1   
    11     4    34 1   
    12     4    35 1   
    13     5     6 1   
    14     5     8 1   
    15     5    36 1   
    16     6     7 1   
    17     6    28 1   
    18     6    37 1   
    19     7    38 1   
    20     7    39 1   
    21     8     9 ar  
    22     8    19 ar  
    23     9    10 1   
    24     9    15 ar  
    25    10    11 1   
    26    11    12 2   
    27    11    21 1   
    28    12    13 1   
    29    12    40 1   
    30    13    14 2   
    31    13    15 1   
    32    15    16 ar  
    33    16    17 1   
    34    16    18 ar  
    35    17    41 1   
    36    18    19 ar  
    37    18    42 1   
    38    19    20 1   
    39    20    43 1   
    40    21    22 ar  
    41    21    27 ar  
    42    22    23 1   
    43    22    24 ar  
    44    24    25 ar  
    45    24    44 1   
    46    25    26 ar  
    47    25    45 1   
    48    26    27 ar  
    49    26    46 1   
    50    27    47 1   
    51    28    48 1   
@<TRIPOS>SUBSTRUCTURE
     1 CPB         1 TEMP              0 ****  ****    0 ROOT
