@<TRIPOS>MOLECULE
CPD
   84    85     1     0     0
SMALL
abcg2


@<TRIPOS>ATOM
      1 C1           0.2690    -0.7710     6.4280 c3         1 CPD       0.205300
      2 C2           0.6420    -1.4890     5.1310 c          1 CPD       0.604100
      3 C3           1.6810    -1.1370     2.9390 c3         1 CPD       0.104700
      4 C4           3.1510    -0.7820     2.7240 c3         1 CPD       0.157600
      5 C5           0.7440    -0.4920     1.8980 c3         1 CPD       0.259600
      6 C6          -0.6940    -0.4690     2.3520 ca         1 CPD      -0.097300
      7 C7          -1.4760    -1.6190     2.3060 ca         1 CPD      -0.095500
      8 C8          -1.2450     0.7130     2.8320 ca         1 CPD      -0.095500
      9 C9          -2.8000    -1.5810     2.7030 ca         1 CPD      -0.048500
     10 C10         -2.5640     0.7670     3.2450 ca         1 CPD      -0.048500
     11 C11         -3.3300    -0.3840     3.1620 ca         1 CPD      -0.174200
     12 C12          1.6880    -1.7810    -1.7660 c3         1 CPD      -0.380100
     13 C13          1.4800    -1.4590    -3.2160 ca         1 CPD      -0.094300
     14 C14          2.2310    -0.4750    -3.8470 ca         1 CPD      -0.074500
     15 C15          0.4970    -2.1090    -3.9590 ca         1 CPD      -0.074500
     16 C16          2.0350    -0.1450    -5.1810 ca         1 CPD      -0.140000
     17 C17          0.2860    -1.7920    -5.2880 ca         1 CPD      -0.140000
     18 C18          1.0530    -0.8080    -5.9130 ca         1 CPD      -0.035000
     19 C19          1.3910     0.2840    -8.1050 c          1 CPD       0.553100
     20 C20          0.7940     0.2710    -9.5270 c3         1 CPD       0.218000
     21 C21         -1.5960    -1.7750    -1.0520 c          1 CPD       0.657100
     22 C22         -3.8210    -2.8180    -1.0470 c3         1 CPD       0.107000
     23 C23         -5.1620    -2.3670    -0.4980 c3         1 CPD      -0.114100
     24 C24         -1.4780     0.6450    -1.6560 c3         1 CPD       0.100000
     25 C25         -2.1590     1.4260    -0.5370 c3         1 CPD      -0.106400
     26 C26         -3.0610     2.5140    -1.1050 c3         1 CPD       0.170800
     27 C27         -4.2480     4.5380    -0.6470 c3         1 CPD       0.149100
     28 C28         -4.7350     2.5910     0.6250 c3         1 CPD       0.149100
     29 N1           1.3140    -0.7120     4.2710 ns         1 CPD      -0.508900
     30 N2          -4.7270    -0.3370     3.5620 no         1 CPD       0.691200
     31 N3           0.7690    -0.5600    -7.2650 ns         1 CPD      -0.125000
     32 N4          -0.8640    -0.6050    -1.2060 n          1 CPD      -0.548800
     33 N5          -2.9310    -1.6830    -1.1940 ns         1 CPD      -0.510900
     34 N6          -3.7080     3.3180    -0.0870 n3         1 CPD      -0.714600
     35 O1           0.3220    -2.6420     4.9420 o          1 CPD      -0.537100
     36 O2           3.5540    -1.1710     1.4380 oh         1 CPD      -0.651000
     37 O3          -5.1550     0.6980     4.0180 o          1 CPD      -0.399500
     38 O4          -5.3960    -1.3330     3.4130 o          1 CPD      -0.399500
     39 O5           0.8660    -1.2650     0.7140 os         1 CPD      -0.572400
     40 O6           1.2930     0.7960    -0.8220 o          1 CPD      -0.580000
     41 O7          -1.0290    -2.8270    -0.7820 o          1 CPD      -0.659100
     42 O8           2.3200     1.0160    -7.8560 o          1 CPD      -0.516100
     43 CL1          0.8030    -1.7440     7.8030 cl         1 CPD      -0.192000
     44 CL2         -1.4940    -0.5840     6.4460 cl         1 CPD      -0.192000
     45 F1           1.5100     1.0370   -10.3320 f          1 CPD      -0.100333
     46 F2           0.7730    -0.9660   -10.0330 f          1 CPD      -0.100333
     47 F3          -0.4620     0.7250    -9.5210 f          1 CPD      -0.100333
     48 P            0.7800    -0.5960    -0.7470 p5         1 CPD       1.342800
     49 H1           0.7080     0.2200     6.5280 h2         1 CPD       0.094700
     50 H3           1.5520    -2.2200     2.8920 h1         1 CPD       0.118700
     51 H41          3.2720     0.3000     2.8780 h1         1 CPD       0.026200
     52 H42          3.7310    -1.2840     3.5080 h1         1 CPD       0.026200
     53 H5           1.0710     0.5390     1.7210 h1         1 CPD       0.067700
     54 H7          -1.0670    -2.5500     1.9410 ha         1 CPD       0.143500
     55 H8          -0.6430     1.6110     2.8720 ha         1 CPD       0.143500
     56 H9          -3.4020    -2.4770     2.6550 ha         1 CPD       0.155000
     57 H10         -2.9770     1.6960     3.6090 ha         1 CPD       0.155000
     58 H121         2.7370    -1.6800    -1.4790 hc         1 CPD       0.107700
     59 H122         1.3720    -2.7950    -1.5310 hc         1 CPD       0.107700
     60 H14          3.0010     0.0470    -3.2940 ha         1 CPD       0.128500
     61 H15         -0.1080    -2.8790    -3.4980 ha         1 CPD       0.128500
     62 H16          2.6490     0.6200    -5.6260 ha         1 CPD       0.131000
     63 H17         -0.4800    -2.3170    -5.8470 ha         1 CPD       0.131000
     64 H221        -3.3600    -3.5340    -0.3690 h1         1 CPD       0.054200
     65 H222        -3.9580    -3.3250    -2.0070 h1         1 CPD       0.054200
     66 H231        -5.8440    -3.2140    -0.4300 hc         1 CPD       0.045700
     67 H232        -5.0570    -1.9380     0.4990 hc         1 CPD       0.045700
     68 H233        -5.6290    -1.6210    -1.1430 hc         1 CPD       0.045700
     69 H241        -0.7100     1.2540    -2.1240 h1         1 CPD       0.060700
     70 H242        -2.1840     0.4150    -2.4590 h1         1 CPD       0.060700
     71 H251        -2.7200     0.7360     0.0970 hc         1 CPD       0.055700
     72 H252        -1.4020     1.8820     0.1040 hc         1 CPD       0.055700
     73 H261        -2.4520     3.1800    -1.7220 h1         1 CPD       0.029700
     74 H262        -3.7980     2.0540    -1.7900 h1         1 CPD       0.029700
     75 H271        -4.6840     5.1500     0.1430 h1         1 CPD       0.032033
     76 H272        -3.4540     5.1200    -1.1190 h1         1 CPD       0.032033
     77 H273        -5.0300     4.3630    -1.4030 h1         1 CPD       0.032033
     78 H281        -5.1540     3.2150     1.4140 h1         1 CPD       0.032033
     79 H282        -5.5660     2.2670    -0.0230 h1         1 CPD       0.032033
     80 H283        -4.3230     1.7030     1.1030 h1         1 CPD       0.032033
     81 HN1          1.5450     0.2310     4.5440 hn         1 CPD       0.317500
     82 HN3          0.0080    -1.1140    -7.6340 hn         1 CPD       0.167000
     83 HN5         -3.3550    -0.8250    -1.5020 hn         1 CPD       0.320500
     84 HO2          4.4750    -0.9170     1.3290 ho         1 CPD       0.454000
@<TRIPOS>BOND
     1     1     2 1   
     2     1    43 1   
     3     1    44 1   
     4     1    49 1   
     5     2    29 1   
     6     2    35 2   
     7     3     4 1   
     8     3     5 1   
     9     3    29 1   
    10     3    50 1   
    11     4    36 1   
    12     4    51 1   
    13     4    52 1   
    14     5     6 1   
    15     5    39 1   
    16     5    53 1   
    17     6     7 ar  
    18     6     8 ar  
    19     7     9 ar  
    20     7    54 1   
    21     8    10 ar  
    22     8    55 1   
    23     9    11 ar  
    24     9    56 1   
    25    10    11 ar  
    26    10    57 1   
    27    11    30 1   
    28    12    13 1   
    29    12    48 1   
    30    12    58 1   
    31    12    59 1   
    32    13    14 ar  
    33    13    15 ar  
    34    14    16 ar  
    35    14    60 1   
    36    15    17 ar  
    37    15    61 1   
    38    16    18 ar  
    39    16    62 1   
    40    17    18 ar  
    41    17    63 1   
    42    18    31 1   
    43    19    20 1   
    44    19    31 1   
    45    19    42 2   
    46    20    45 1   
    47    20    46 1   
    48    20    47 1   
    49    21    32 1   
    50    21    33 1   
    51    21    41 2   
    52    22    23 1   
    53    22    33 1   
    54    22    64 1   
    55    22    65 1   
    56    23    66 1   
    57    23    67 1   
    58    23    68 1   
    59    24    25 1   
    60    24    32 1   
    61    24    69 1   
    62    24    70 1   
    63    25    26 1   
    64    25    71 1   
    65    25    72 1   
    66    26    34 1   
    67    26    73 1   
    68    26    74 1   
    69    27    34 1   
    70    27    75 1   
    71    27    76 1   
    72    27    77 1   
    73    28    34 1   
    74    28    78 1   
    75    28    79 1   
    76    28    80 1   
    77    29    81 1   
    78    30    37 1   
    79    30    38 1   
    80    31    82 1   
    81    32    48 1   
    82    33    83 1   
    83    36    84 1   
    84    39    48 1   
    85    40    48 2   
@<TRIPOS>SUBSTRUCTURE
     1 CPD         1 TEMP              0 ****  ****    0 ROOT
