@<TRIPOS>MOLECULE
CPD
   84    85     1     0     0
SMALL
No Charge or Current Charge


@<TRIPOS>ATOM
      1 C1          -0.1890    -1.6610     6.5200 c3         1 CPD       0.205300
      2 C2           0.4730    -2.0810     5.1850 c          1 CPD       0.604100
      3 C3           1.7790    -1.2040     3.1890 c3         1 CPD       0.104700
      4 C4           3.2720    -0.7780     3.2640 c3         1 CPD       0.157600
      5 C5           0.9660    -0.4380     2.0970 c3         1 CPD       0.259600
      6 C6          -0.5410    -0.3880     2.3750 ca         1 CPD      -0.097300
      7 C7          -1.3200    -1.5600     2.3310 ca         1 CPD      -0.095500
      8 C8          -1.1620     0.8340     2.6970 ca         1 CPD      -0.095500
      9 C9          -2.7010    -1.5130     2.5820 ca         1 CPD      -0.048500
     10 C10         -2.5420     0.8880     2.9570 ca         1 CPD      -0.048500
     11 C11         -3.3280    -0.2860     2.8960 ca         1 CPD      -0.174200
     12 C12          1.9040    -1.3130    -1.7050 c3         1 CPD      -0.380100
     13 C13          1.5310    -1.1610    -3.1740 ca         1 CPD      -0.094300
     14 C14          1.9610    -0.0360    -3.8990 ca         1 CPD      -0.074500
     15 C15          0.7320    -2.1260    -3.8100 ca         1 CPD      -0.074500
     16 C16          1.5940     0.1260    -5.2470 ca         1 CPD      -0.140000
     17 C17          0.3640    -1.9650    -5.1570 ca         1 CPD      -0.140000
     18 C18          0.7880    -0.8400    -5.8900 ca         1 CPD      -0.035000
     19 C19          0.5710     0.2230    -8.2290 c          1 CPD       0.553100
     20 C20         -0.0790    -0.1310    -9.5930 c3         1 CPD       0.218000
     21 C21         -1.2760    -1.7540    -0.9120 c          1 CPD       0.657100
     22 C22         -3.4840    -2.9450    -1.0580 c3         1 CPD       0.107000
     23 C23         -4.9130    -2.5470    -0.6550 c3         1 CPD      -0.114100
     24 C24         -1.3430     0.6570    -1.6130 c3         1 CPD       0.100000
     25 C25         -2.1100     1.5220    -0.5950 c3         1 CPD      -0.106400
     26 C26         -2.8680     2.6890    -1.2640 c3         1 CPD       0.170800
     27 C27         -4.0110     4.8460    -0.9790 c3         1 CPD       0.149100
     28 C28         -4.6490     2.9590     0.4500 c3         1 CPD       0.149100
     29 N1           1.1590    -1.0730     4.5280 ns         1 CPD      -0.508900
     30 N2          -4.8000    -0.2310     3.1690 no         1 CPD       0.691200
     31 N3           0.3740    -0.7470    -7.2490 ns         1 CPD      -0.125000
     32 N4          -0.6610    -0.5080    -0.9920 n          1 CPD      -0.548800
     33 N5          -2.6230    -1.7690    -1.1700 ns         1 CPD      -0.510900
     34 N6          -3.5560     3.6020    -0.3180 n3         1 CPD      -0.714600
     35 O1           0.3990    -3.2130     4.7210 o          1 CPD      -0.537100
     36 O2           3.9660    -1.0290     2.0340 oh         1 CPD      -0.651000
     37 O3          -5.3100     0.8710     3.4110 o          1 CPD      -0.399500
     38 O4          -5.4430    -1.2870     3.1240 o          1 CPD      -0.399500
     39 O5           1.1780    -1.0900     0.8380 os         1 CPD      -0.572400
     40 O6           1.4180     1.1320    -0.5310 o          1 CPD      -0.580000
     41 O7          -0.6840    -2.7770    -0.6220 o          1 CPD      -0.659100
     42 O8           1.1940     1.2650    -8.0440 o          1 CPD      -0.516100
     43 Cl1         -0.6730    -3.0780     7.5650 cl         1 CPD      -0.192000
     44 Cl2         -1.6540    -0.6120     6.2450 cl         1 CPD      -0.192000
     45 F1           0.1320     0.8310   -10.5240 f          1 CPD      -0.100333
     46 F2           0.4210    -1.2870   -10.0920 f          1 CPD      -0.100333
     47 F3          -1.4190    -0.2880    -9.4760 f          1 CPD      -0.100333
     48 P            0.9380    -0.2790    -0.5370 p5         1 CPD       1.342800
     49 H1           0.5250    -1.0710     7.1030 h2         1 CPD       0.094700
     50 H3           1.7650    -2.2650     2.9070 h1         1 CPD       0.118700
     51 H41          3.3270     0.2880     3.5190 h1         1 CPD       0.026200
     52 H42          3.7520    -1.3360     4.0790 h1         1 CPD       0.026200
     53 H5           1.3430     0.5940     2.0680 h1         1 CPD       0.067700
     54 H7          -0.8530    -2.5140     2.0950 ha         1 CPD       0.143500
     55 H8          -0.5770     1.7510     2.7480 ha         1 CPD       0.143500
     56 H9          -3.2750    -2.4370     2.5330 ha         1 CPD       0.155000
     57 H10         -2.9910     1.8480     3.2040 ha         1 CPD       0.155000
     58 H121         2.9450    -1.0290    -1.5270 hc         1 CPD       0.107700
     59 H122         1.7930    -2.3450    -1.3600 hc         1 CPD       0.107700
     60 H14          2.5790     0.7200    -3.4190 ha         1 CPD       0.128500
     61 H15          0.3880    -3.0000    -3.2610 ha         1 CPD       0.128500
     62 H16          1.9500     1.0080    -5.7690 ha         1 CPD       0.131000
     63 H17         -0.2570    -2.7220    -5.6300 ha         1 CPD       0.131000
     64 H221        -3.0760    -3.6290    -0.3020 h1         1 CPD       0.054200
     65 H222        -3.5010    -3.4660    -2.0240 h1         1 CPD       0.054200
     66 H231        -5.5440    -3.4390    -0.5650 hc         1 CPD       0.045700
     67 H232        -4.9120    -2.0270     0.3100 hc         1 CPD       0.045700
     68 H233        -5.3580    -1.8850    -1.4070 hc         1 CPD       0.045700
     69 H241        -0.6000     1.2870    -2.1220 h1         1 CPD       0.060700
     70 H242        -2.0260     0.3170    -2.4030 h1         1 CPD       0.060700
     71 H251        -2.8110     0.8840    -0.0480 hc         1 CPD       0.055700
     72 H252        -1.4030     1.9330     0.1340 hc         1 CPD       0.055700
     73 H261        -2.1350     3.2630    -1.8490 h1         1 CPD       0.029700
     74 H262        -3.5940     2.2770    -1.9780 h1         1 CPD       0.029700
     75 H271        -4.4440     5.5400    -0.2460 h1         1 CPD       0.032033
     76 H272        -3.1710     5.3560    -1.4690 h1         1 CPD       0.032033
     77 H273        -4.7730     4.6290    -1.7400 h1         1 CPD       0.032033
     78 H281        -5.1120     3.6770     1.1400 h1         1 CPD       0.032033
     79 H282        -5.4300     2.5800    -0.2230 h1         1 CPD       0.032033
     80 H283        -4.2770     2.1210     1.0510 h1         1 CPD       0.032033
     81 HN1          1.1620    -0.1600     4.9710 hn         1 CPD       0.317500
     82 HN3         -0.1670    -1.5430    -7.5630 hn         1 CPD       0.167000
     83 HN5         -3.0520    -0.8800    -1.3820 hn         1 CPD       0.320500
     84 HO2          4.9100    -0.7970     2.1830 ho         1 CPD       0.454000
@<TRIPOS>BOND
     1     1     2 1   
     2     1    43 1   
     3     1    44 1   
     4     1    49 1   
     5     2    29 1   
     6     2    35 2   
     7     3     4 1   
     8     3     5 1   
     9     3    29 1   
    10     3    50 1   
    11     4    36 1   
    12     4    51 1   
    13     4    52 1   
    14     5     6 1   
    15     5    39 1   
    16     5    53 1   
    17     6     7 ar  
    18     6     8 ar  
    19     7     9 ar  
    20     7    54 1   
    21     8    10 ar  
    22     8    55 1   
    23     9    11 ar  
    24     9    56 1   
    25    10    11 ar  
    26    10    57 1   
    27    11    30 1   
    28    12    13 1   
    29    12    48 1   
    30    12    58 1   
    31    12    59 1   
    32    13    14 ar  
    33    13    15 ar  
    34    14    16 ar  
    35    14    60 1   
    36    15    17 ar  
    37    15    61 1   
    38    16    18 ar  
    39    16    62 1   
    40    17    18 ar  
    41    17    63 1   
    42    18    31 1   
    43    19    20 1   
    44    19    31 1   
    45    19    42 2   
    46    20    45 1   
    47    20    46 1   
    48    20    47 1   
    49    21    32 1   
    50    21    33 1   
    51    21    41 2   
    52    22    23 1   
    53    22    33 1   
    54    22    64 1   
    55    22    65 1   
    56    23    66 1   
    57    23    67 1   
    58    23    68 1   
    59    24    25 1   
    60    24    32 1   
    61    24    69 1   
    62    24    70 1   
    63    25    26 1   
    64    25    71 1   
    65    25    72 1   
    66    26    34 1   
    67    26    73 1   
    68    26    74 1   
    69    27    34 1   
    70    27    75 1   
    71    27    76 1   
    72    27    77 1   
    73    28    34 1   
    74    28    78 1   
    75    28    79 1   
    76    28    80 1   
    77    29    81 1   
    78    30    37 1   
    79    30    38 1   
    80    31    82 1   
    81    32    48 1   
    82    33    83 1   
    83    36    84 1   
    84    39    48 1   
    85    40    48 2   
@<TRIPOS>SUBSTRUCTURE
     1 CPD         1 TEMP              0 ****  ****    0 ROOT
