@<TRIPOS>MOLECULE
CPF
   41    44     1     0     0
SMALL
No Charge or Current Charge


@<TRIPOS>ATOM
      1 O2           5.2180     1.7240    -0.3690 o          1 CPF      -0.713000
      2 C3           4.7500     0.6300    -0.6380 c          1 CPF       0.726200
      3 O1           5.4330    -0.2290    -1.1780 o          1 CPF      -0.713000
      4 C2           3.3260     0.3150    -0.3520 cc         1 CPF      -0.294400
      5 C1           2.8600    -0.9400    -0.7330 cd         1 CPF       0.016000
      6 N1           1.5500    -1.3080    -0.3570 na         1 CPF      -0.631200
      7 C10          0.6240    -0.2870    -0.0860 ca         1 CPF       0.339000
      8 C9          -0.7550    -0.5700    -0.1730 ca         1 CPF      -0.222000
      9 C8          -1.7260     0.3900     0.1630 ca         1 CPF       0.277000
     10 N2          -3.1060     0.0650     0.0690 nh         1 CPF      -0.781400
     11 C17         -3.6190    -0.8520    -1.0020 c6         1 CPF       0.195800
     12 C16         -5.1480    -0.6490    -1.2800 c6         1 CPF       0.152300
     13 N3          -5.9810    -0.7160    -0.0440 n7         1 CPF      -0.864400
     14 C15         -5.4760     0.2350     0.9900 c6         1 CPF       0.152300
     15 C14         -3.9530     0.0470     1.3060 c6         1 CPF       0.195800
     16 C7          -1.2940     1.6660     0.6000 ca         1 CPF       0.074000
     17 F1          -2.1850     2.6370     0.9210 f          1 CPF      -0.195000
     18 C6           0.0730     1.9590     0.6770 ca         1 CPF      -0.052000
     19 C5           1.0300     0.9830     0.3240 ca         1 CPF      -0.212600
     20 C4           2.4770     1.2940     0.3470 c          1 CPF       0.593900
     21 O3           2.8690     2.3230     0.8870 o          1 CPF      -0.542100
     22 C11          1.2370    -2.7430    -0.4650 cx         1 CPF       0.166500
     23 C12          0.6390    -3.5780     0.6420 cx         1 CPF      -0.137400
     24 C13          2.0430    -3.8540     0.1660 cx         1 CPF      -0.137400
     25 H1           3.4820    -1.6980    -1.2120 h4         1 CPF       0.226000
     26 H9          -1.0810    -1.5530    -0.4890 ha         1 CPF       0.113000
     27 H171        -3.0700    -0.6840    -1.9400 h1         1 CPF       0.045200
     28 H172        -3.4520    -1.8980    -0.7060 h1         1 CPF       0.045200
     29 H161        -5.2900     0.3340    -1.7530 h1         1 CPF       0.034450
     30 H162        -5.4920    -1.4090    -1.9960 h1         1 CPF       0.034450
     31 HN3         -6.9510    -0.4720    -0.2790 hn         1 CPF       0.404000
     32 H151        -5.6350     1.2640     0.6360 h1         1 CPF       0.034450
     33 H152        -6.0580     0.1140     1.9160 h1         1 CPF       0.034450
     34 H141        -3.8170    -0.9120     1.8280 h1         1 CPF       0.045200
     35 H142        -3.6420     0.8380     2.0030 h1         1 CPF       0.045200
     36 H6           0.3820     2.9520     0.9950 ha         1 CPF       0.149000
     37 H11          0.8620    -2.9150    -1.4760 h1         1 CPF       0.079700
     38 H121         0.5160    -3.1100     1.6150 hc         1 CPF       0.079700
     39 H122        -0.1410    -4.2850     0.3710 hc         1 CPF       0.079700
     40 H131         2.2140    -4.7480    -0.4260 hc         1 CPF       0.079700
     41 H132         2.8620    -3.5750     0.8240 hc         1 CPF       0.079700
@<TRIPOS>BOND
     1     1     2 1   
     2     2     3 1   
     3     2     4 1   
     4     4     5 2   
     5     4    20 1   
     6     5     6 1   
     7     5    25 1   
     8     6     7 1   
     9     6    22 1   
    10     7     8 ar  
    11     7    19 ar  
    12     8     9 ar  
    13     8    26 1   
    14     9    10 1   
    15     9    16 ar  
    16    10    11 1   
    17    10    15 1   
    18    11    12 1   
    19    11    27 1   
    20    11    28 1   
    21    12    13 1   
    22    12    29 1   
    23    12    30 1   
    24    13    14 1   
    25    13    31 1   
    26    14    15 1   
    27    14    32 1   
    28    14    33 1   
    29    15    34 1   
    30    15    35 1   
    31    16    17 1   
    32    16    18 ar  
    33    18    19 ar  
    34    18    36 1   
    35    19    20 1   
    36    20    21 2   
    37    22    23 1   
    38    22    24 1   
    39    22    37 1   
    40    23    24 1   
    41    23    38 1   
    42    23    39 1   
    43    24    40 1   
    44    24    41 1   
@<TRIPOS>SUBSTRUCTURE
     1 CPF         1 TEMP              0 ****  ****    0 ROOT
