@<TRIPOS>MOLECULE
CPF
   41    44     1     0     0
SMALL
abcg2


@<TRIPOS>ATOM
      1 O2           5.3480     1.5550     0.1240 o          1 CPF      -0.713000
      2 C3           4.8550     0.4330    -0.0810 c          1 CPF       0.726200
      3 O1           5.4910    -0.6190    -0.3130 o          1 CPF      -0.713000
      4 C2           3.3380     0.3060    -0.0550 cc         1 CPF      -0.294400
      5 C1           2.8200    -0.9130    -0.3810 cd         1 CPF       0.016000
      6 N1           1.5130    -1.2370    -0.4070 na         1 CPF      -0.631200
      7 C10          0.5670    -0.2710    -0.1220 ca         1 CPF       0.339000
      8 C9          -0.8020    -0.5670    -0.1730 ca         1 CPF      -0.222000
      9 C8          -1.7640     0.3920     0.1090 ca         1 CPF       0.277000
     10 N2          -3.1280     0.1430     0.0310 nh         1 CPF      -0.781400
     11 C17         -3.5450    -1.0430    -0.6990 c6         1 CPF       0.195800
     12 C16         -5.0320    -0.9700    -0.9930 c6         1 CPF       0.152300
     13 N3          -5.7710    -0.8370     0.2460 n7         1 CPF      -0.864400
     14 C15         -5.3820     0.3720     0.9440 c6         1 CPF       0.152300
     15 C14         -3.9010     0.3170     1.2620 c6         1 CPF       0.195800
     16 C7          -1.2940     1.6800     0.4360 ca         1 CPF       0.074000
     17 F1          -2.1950     2.6560     0.6480 f          1 CPF      -0.195000
     18 C6           0.0320     1.9820     0.5110 ca         1 CPF      -0.052000
     19 C5           1.0020     1.0100     0.2310 ca         1 CPF      -0.212600
     20 C4           2.4290     1.3770     0.2930 c          1 CPF       0.593900
     21 O3           2.7490     2.5190     0.6210 o          1 CPF      -0.542100
     22 C11          1.1060    -2.5510    -0.8290 cx         1 CPF       0.166500
     23 C12          0.4970    -3.4920     0.1630 cx         1 CPF      -0.137400
     24 C13          1.8730    -3.7440    -0.3660 cx         1 CPF      -0.137400
     25 H1           3.4970    -1.7130    -0.6450 h4         1 CPF       0.226000
     26 H9          -1.1180    -1.5640    -0.4340 ha         1 CPF       0.113000
     27 H171        -2.9990    -1.0940    -1.6420 h1         1 CPF       0.045200
     28 H172        -3.3300    -1.9660    -0.1390 h1         1 CPF       0.045200
     29 H161        -5.2100    -0.1360    -1.6910 h1         1 CPF       0.034450
     30 H162        -5.3340    -1.8880    -1.5000 h1         1 CPF       0.034450
     31 HN3         -6.7640    -0.8180     0.0530 hn         1 CPF       0.404000
     32 H151        -5.5860     1.2870     0.3660 h1         1 CPF       0.034450
     33 H152        -5.9400     0.4470     1.8790 h1         1 CPF       0.034450
     34 H141        -3.7080    -0.5170     1.9520 h1         1 CPF       0.045200
     35 H142        -3.6080     1.2330     1.7690 h1         1 CPF       0.045200
     36 H6           0.3420     2.9880     0.7590 ha         1 CPF       0.149000
     37 H11          0.7130    -2.5770    -1.8410 h1         1 CPF       0.079700
     38 H121         0.4160    -3.1510     1.1870 hc         1 CPF       0.079700
     39 H122        -0.3230    -4.1110    -0.1760 hc         1 CPF       0.079700
     40 H131         2.0220    -4.5390    -1.0850 hc         1 CPF       0.079700
     41 H132         2.7010    -3.5950     0.3150 hc         1 CPF       0.079700
@<TRIPOS>BOND
     1     1     2 1   
     2     2     3 1   
     3     2     4 1   
     4     4     5 2   
     5     4    20 1   
     6     5     6 1   
     7     5    25 1   
     8     6     7 1   
     9     6    22 1   
    10     7     8 ar  
    11     7    19 ar  
    12     8     9 ar  
    13     8    26 1   
    14     9    10 1   
    15     9    16 ar  
    16    10    11 1   
    17    10    15 1   
    18    11    12 1   
    19    11    27 1   
    20    11    28 1   
    21    12    13 1   
    22    12    29 1   
    23    12    30 1   
    24    13    14 1   
    25    13    31 1   
    26    14    15 1   
    27    14    32 1   
    28    14    33 1   
    29    15    34 1   
    30    15    35 1   
    31    16    17 1   
    32    16    18 ar  
    33    18    19 ar  
    34    18    36 1   
    35    19    20 1   
    36    20    21 2   
    37    22    23 1   
    38    22    24 1   
    39    22    37 1   
    40    23    24 1   
    41    23    38 1   
    42    23    39 1   
    43    24    40 1   
    44    24    41 1   
@<TRIPOS>SUBSTRUCTURE
     1 CPF         1 TEMP              0 ****  ****    0 ROOT
