@<TRIPOS>MOLECULE
CPH
   54    56     1     0     0
SMALL
abcg2


@<TRIPOS>ATOM
      1 C1          -0.0190     2.3940    -0.0260 c          1 CPH       0.600700
      2 O1           0.3730     3.3400     0.6680 o          1 CPH      -0.599100
      3 C2          -1.4090     2.4720    -0.6410 c6         1 CPH       0.103300
      4 C3          -2.0120     1.0950    -0.8890 c6         1 CPH      -0.044700
      5 C4          -1.0370     0.2360    -1.6900 c6         1 CPH      -0.034100
      6 C5           3.2820    -2.0740    -1.0580 ca         1 CPH      -0.218000
      7 C6           4.5800    -2.0990    -0.5920 ca         1 CPH       0.218100
      8 C7           5.1380    -1.0210     0.1280 ca         1 CPH      -0.244300
      9 C8           4.3460     0.0870     0.3710 ca         1 CPH       0.247100
     10 O8           4.8980     1.0970     1.0540 oh         1 CPH      -0.540100
     11 C9           2.1400     1.2510     0.1360 ca         1 CPH       0.280100
     12 O9           2.6070     2.2730     0.8500 oh         1 CPH      -0.601100
     13 C11         -2.4700     0.5030     0.4560 c3         1 CPH       0.083300
     14 O5          -1.4290     0.5740     1.3760 os         1 CPH      -0.431000
     15 C10          1.1380    -0.9140    -1.3050 ca         1 CPH      -0.168000
     16 C12         -2.9460    -0.9290     0.2610 c          1 CPH       0.518100
     17 O2          -2.2670    -1.8710     0.5910 o          1 CPH      -0.489100
     18 C13         -4.3010    -1.1560    -0.3860 c3         1 CPH       0.033300
     19 O3          -4.4570    -2.5030    -0.7230 oh         1 CPH      -0.653000
     20 C14         -5.4010    -0.6890     0.5890 c3         1 CPH       0.156300
     21 O4          -5.1940    -1.2430     1.8690 oh         1 CPH      -0.662000
     22 C4A          0.3380     0.1650    -1.0970 ca         1 CPH       0.042700
     23 C15         -6.7910    -0.9800     0.0500 c3         1 CPH      -0.120100
     24 C5A          2.4750    -0.9580    -0.8240 ca         1 CPH       0.104000
     25 C8A          2.9970     0.1460    -0.0970 ca         1 CPH      -0.210000
     26 C9A          0.8350     1.2780    -0.3580 ca         1 CPH      -0.311600
     27 CC7          6.5610    -1.1000     0.6040 c3         1 CPH      -0.037800
     28 O6           5.3010    -3.2010    -0.8510 oh         1 CPH      -0.533100
     29 O7          -1.2760     3.1150    -1.8890 oh         1 CPH      -0.652000
     30 CME         -1.8460     0.5340     2.7240 c3         1 CPH       0.139900
     31 H2          -2.0520     3.0470     0.0380 h1         1 CPH       0.058700
     32 H3          -2.9150     1.2400    -1.4890 hc         1 CPH       0.070700
     33 H4          -1.4260    -0.7710    -1.8540 hc         1 CPH       0.067200
     34 H4A         -0.9530     0.6720    -2.6890 hc         1 CPH       0.067200
     35 H5           2.8890    -2.9200    -1.6080 ha         1 CPH       0.136000
     36 HO8          4.2490     1.8090     1.1830 ho         1 CPH       0.505000
     37 HO9          1.8600     2.9360     0.9530 ho         1 CPH       0.544000
     38 H1          -3.3200     1.1170     0.7920 h1         1 CPH       0.052700
     39 H10          0.7610    -1.7680    -1.8550 ha         1 CPH       0.121000
     40 H6          -4.3680    -0.5370    -1.2910 h1         1 CPH       0.079700
     41 HO3         -3.7410    -2.9980    -0.3000 ho         1 CPH       0.469000
     42 H7          -5.3010     0.3930     0.7130 h1         1 CPH       0.067700
     43 HO4         -5.3410    -2.1940     1.8150 ho         1 CPH       0.454000
     44 H8          -6.9570    -2.0500    -0.0790 hc         1 CPH       0.049367
     45 H5'A        -7.5450    -0.5980     0.7390 hc         1 CPH       0.049367
     46 H5'B        -6.9470    -0.4960    -0.9150 hc         1 CPH       0.049367
     47 HC7          7.2600    -1.2230    -0.2280 hc         1 CPH       0.043367
     48 HC7A         6.8630    -0.2020     1.1340 hc         1 CPH       0.043367
     49 HC7B         6.7150    -1.9370     1.2910 hc         1 CPH       0.043367
     50 HO6          6.1960    -3.1310    -0.5010 ho         1 CPH       0.474000
     51 HO2         -1.0570     4.0420    -1.7400 ho         1 CPH       0.459000
     52 HME         -0.9650     0.6960     3.3420 h1         1 CPH       0.040367
     53 HMEA        -2.5760     1.3210     2.9400 h1         1 CPH       0.040367
     54 HMEB        -2.2890    -0.4280     2.9970 h1         1 CPH       0.040367
@<TRIPOS>BOND
     1     1     2 2   
     2     1     3 1   
     3     1    26 1   
     4     3     4 1   
     5     3    29 1   
     6     3    31 1   
     7     4     5 1   
     8     4    13 1   
     9     4    32 1   
    10     5    22 1   
    11     5    33 1   
    12     5    34 1   
    13     6     7 ar  
    14     6    24 ar  
    15     6    35 1   
    16     7     8 ar  
    17     7    28 1   
    18     8     9 ar  
    19     8    27 1   
    20     9    10 1   
    21     9    25 ar  
    22    10    36 1   
    23    11    12 1   
    24    11    25 ar  
    25    11    26 ar  
    26    12    37 1   
    27    13    14 1   
    28    13    16 1   
    29    13    38 1   
    30    14    30 1   
    31    15    22 ar  
    32    15    24 ar  
    33    15    39 1   
    34    16    17 2   
    35    16    18 1   
    36    18    19 1   
    37    18    20 1   
    38    18    40 1   
    39    19    41 1   
    40    20    21 1   
    41    20    23 1   
    42    20    42 1   
    43    21    43 1   
    44    22    26 ar  
    45    23    44 1   
    46    23    45 1   
    47    23    46 1   
    48    24    25 ar  
    49    27    47 1   
    50    27    48 1   
    51    27    49 1   
    52    28    50 1   
    53    29    51 1   
    54    30    52 1   
    55    30    53 1   
    56    30    54 1   
@<TRIPOS>SUBSTRUCTURE
     1 CPH         1 TEMP              0 ****  ****    0 ROOT
