@<TRIPOS>MOLECULE
CPH
   54    56     1     0     0
SMALL
No Charge or Current Charge


@<TRIPOS>ATOM
      1 C1          -0.0600     2.5560    -0.1640 c          1 CPH       0.600700
      2 O1           0.4150     3.6310     0.1980 o          1 CPH      -0.599100
      3 C2          -1.5930     2.4440    -0.4710 c6         1 CPH       0.103300
      4 C3          -2.1000     0.9840    -0.6370 c6         1 CPH      -0.044700
      5 C4          -1.1210     0.1770    -1.5310 c6         1 CPH      -0.034100
      6 C5           3.2520    -2.0500    -1.0200 ca         1 CPH      -0.218000
      7 C6           4.5820    -2.0960    -0.6030 ca         1 CPH       0.218100
      8 C7           5.1680    -0.9950     0.0470 ca         1 CPH      -0.244300
      9 C8           4.3790     0.1610     0.2690 ca         1 CPH       0.247100
     10 O8           4.9390     1.2280     0.8980 oh         1 CPH      -0.540100
     11 C9           2.1870     1.3560     0.0450 ca         1 CPH       0.280100
     12 O9           2.6760     2.4740     0.6550 oh         1 CPH      -0.601100
     13 C11         -2.4190     0.3050     0.7460 c3         1 CPH       0.083300
     14 O5          -1.2510     0.4200     1.6000 os         1 CPH      -0.431000
     15 C10          1.1410    -0.9030    -1.2340 ca         1 CPH      -0.168000
     16 C12         -2.9350    -1.1700     0.6220 c          1 CPH       0.518100
     17 O2          -2.3310    -2.1200     1.1170 o          1 CPH      -0.489100
     18 C13         -4.2480    -1.4190    -0.1940 c3         1 CPH       0.033300
     19 O3          -4.6540    -2.8180    -0.1420 oh         1 CPH      -0.653000
     20 C14         -5.4310    -0.5140     0.2660 c3         1 CPH       0.156300
     21 O4          -5.8070    -0.8740     1.5970 oh         1 CPH      -0.662000
     22 C4A          0.3210     0.2140    -1.0290 ca         1 CPH       0.042700
     23 C15         -6.6720    -0.6250    -0.6460 c3         1 CPH      -0.120100
     24 C5A          2.4730    -0.9070    -0.7980 ca         1 CPH       0.104000
     25 C8A          3.0210     0.2200    -0.1510 ca         1 CPH      -0.210000
     26 C9A          0.8400     1.3570    -0.3870 ca         1 CPH      -0.311600
     27 CC7          6.6370    -1.0690     0.4980 c3         1 CPH      -0.037800
     28 O6           5.2960    -3.2300    -0.8420 oh         1 CPH      -0.533100
     29 O7          -1.9320     3.2150    -1.6520 oh         1 CPH      -0.652000
     30 CME         -1.4870     0.2770     3.0140 c3         1 CPH       0.139900
     31 H2          -2.0990     2.8820     0.4020 h1         1 CPH       0.058700
     32 H3          -3.0660     1.0300    -1.1600 hc         1 CPH       0.070700
     33 H4          -1.4630    -0.8610    -1.6360 hc         1 CPH       0.067200
     34 H4A         -1.1410     0.5910    -2.5490 hc         1 CPH       0.067200
     35 H5           2.8220    -2.9140    -1.5200 ha         1 CPH       0.136000
     36 HO8          4.2130     1.9020     0.9390 ho         1 CPH       0.505000
     37 HO9          1.9390     3.1450     0.6070 ho         1 CPH       0.544000
     38 H1          -3.2340     0.8860     1.1950 h1         1 CPH       0.052700
     39 H10          0.7390    -1.7790    -1.7360 ha         1 CPH       0.121000
     40 H6          -4.0100    -1.1460    -1.2310 h1         1 CPH       0.079700
     41 HO3         -3.8490    -3.3480     0.0690 ho         1 CPH       0.469000
     42 H7          -5.1150     0.5380     0.2360 h1         1 CPH       0.067700
     43 HO4         -5.9190    -1.8510     1.5800 ho         1 CPH       0.454000
     44 H8          -7.0780    -1.6440    -0.6480 hc         1 CPH       0.049367
     45 H5'A        -7.4610     0.0560    -0.3050 hc         1 CPH       0.049367
     46 H5'B        -6.4150    -0.3560    -1.6770 hc         1 CPH       0.049367
     47 HC7          7.3020    -1.2380    -0.3570 hc         1 CPH       0.043367
     48 HC7A         6.9910    -0.1570     0.9920 hc         1 CPH       0.043367
     49 HC7B         6.7880    -1.8880     1.2110 hc         1 CPH       0.043367
     50 HO6          6.1990    -3.0950    -0.4890 ho         1 CPH       0.474000
     51 HO2         -1.6010     4.1310    -1.5020 ho         1 CPH       0.459000
     52 HME         -0.5470     0.3960     3.5680 h1         1 CPH       0.040367
     53 HMEA        -2.1890     1.0420     3.3710 h1         1 CPH       0.040367
     54 HMEB        -1.8980    -0.7110     3.2550 h1         1 CPH       0.040367
@<TRIPOS>BOND
     1     1     2 2   
     2     1     3 1   
     3     1    26 1   
     4     3     4 1   
     5     3    29 1   
     6     3    31 1   
     7     4     5 1   
     8     4    13 1   
     9     4    32 1   
    10     5    22 1   
    11     5    33 1   
    12     5    34 1   
    13     6     7 ar  
    14     6    24 ar  
    15     6    35 1   
    16     7     8 ar  
    17     7    28 1   
    18     8     9 ar  
    19     8    27 1   
    20     9    10 1   
    21     9    25 ar  
    22    10    36 1   
    23    11    12 1   
    24    11    25 ar  
    25    11    26 ar  
    26    12    37 1   
    27    13    14 1   
    28    13    16 1   
    29    13    38 1   
    30    14    30 1   
    31    15    22 ar  
    32    15    24 ar  
    33    15    39 1   
    34    16    17 2   
    35    16    18 1   
    36    18    19 1   
    37    18    20 1   
    38    18    40 1   
    39    19    41 1   
    40    20    21 1   
    41    20    23 1   
    42    20    42 1   
    43    21    43 1   
    44    22    26 ar  
    45    23    44 1   
    46    23    45 1   
    47    23    46 1   
    48    24    25 ar  
    49    27    47 1   
    50    27    48 1   
    51    27    49 1   
    52    28    50 1   
    53    29    51 1   
    54    30    52 1   
    55    30    53 1   
    56    30    54 1   
@<TRIPOS>SUBSTRUCTURE
     1 CPH         1 TEMP              0 ****  ****    0 ROOT
