@<TRIPOS>MOLECULE
CPI
   19    19     1     0     0
SMALL
No Charge or Current Charge


@<TRIPOS>ATOM
      1 N           17.1940    16.7940    20.5520 n7         1 CPI      -0.807400
      2 CE          17.9840    17.9760    20.9880 c6         1 CPI       0.156800
      3 CD          19.5020    17.7560    20.7690 c6         1 CPI      -0.110400
      4 CG          19.8050    17.3820    19.2990 c6         1 CPI      -0.067400
      5 CB          18.9620    16.1580    18.8700 c6         1 CPI      -0.081400
      6 CA          17.4420    16.3880    19.1110 c6         1 CPI       0.020500
      7 C           16.7960    17.2860    17.9620 c          1 CPI       0.726000
      8 O           16.6160    18.4800    18.1730 o          1 CPI      -0.728000
      9 H           17.4700    16.0090    21.1510 hn         1 CPI       0.353000
     10 HE2         17.6630    18.8730    20.4390 h1         1 CPI       0.046700
     11 HE3         17.7950    18.1680    22.0550 h1         1 CPI       0.046700
     12 HD2         20.0530    18.6650    21.0450 hc         1 CPI       0.013200
     13 HD3         19.8600    16.9590    21.4350 hc         1 CPI       0.013200
     14 HG2         19.5850    18.2370    18.6440 hc         1 CPI       0.032200
     15 HG3         20.8750    17.1630    19.1800 hc         1 CPI       0.032200
     16 HB2         19.1450    15.9260    17.8120 hc         1 CPI       0.024200
     17 HB3         19.2920    15.2760    19.4380 hc         1 CPI       0.024200
     18 HA          16.9610    15.4070    18.9850 h1         1 CPI       0.034700
     19 OXT         16.1110    16.6920    17.1380 o          1 CPI      -0.728000
@<TRIPOS>BOND
     1     1     2 1   
     2     1     6 1   
     3     1     9 1   
     4     2     3 1   
     5     2    10 1   
     6     2    11 1   
     7     3     4 1   
     8     3    12 1   
     9     3    13 1   
    10     4     5 1   
    11     4    14 1   
    12     4    15 1   
    13     5     6 1   
    14     5    16 1   
    15     5    17 1   
    16     6     7 1   
    17     6    18 1   
    18     7     8 1   
    19     7    19 1   
@<TRIPOS>SUBSTRUCTURE
     1 CPI         1 TEMP              0 ****  ****    0 ROOT
