@<TRIPOS>MOLECULE
CPI
   19    19     1     0     0
SMALL
abcg2


@<TRIPOS>ATOM
      1 N           17.2010    16.8410    20.5670 n7         1 CPI      -0.807400
      2 CE          18.0360    17.9770    20.9290 c6         1 CPI       0.156800
      3 CD          19.5260    17.7600    20.6780 c6         1 CPI      -0.110400
      4 CG          19.7640    17.3150    19.2390 c6         1 CPI      -0.067400
      5 CB          18.8930    16.1080    18.9060 c6         1 CPI      -0.081400
      6 CA          17.4150    16.3950    19.1940 c6         1 CPI       0.020500
      7 C           16.7760    17.3460    18.1390 c          1 CPI       0.726000
      8 O           15.9450    18.1860    18.5300 o          1 CPI      -0.728000
      9 H           17.4350    16.0710    21.1840 hn         1 CPI       0.353000
     10 HE2         17.6960    18.8450    20.3570 h1         1 CPI       0.046700
     11 HE3         17.8600    18.2130    21.9820 h1         1 CPI       0.046700
     12 HD2         20.0830    18.6740    20.9040 hc         1 CPI       0.013200
     13 HD3         19.8990    16.9890    21.3620 hc         1 CPI       0.013200
     14 HG2         19.5270    18.1370    18.5550 hc         1 CPI       0.032200
     15 HG3         20.8200    17.0790    19.0810 hc         1 CPI       0.032200
     16 HB2         19.0280    15.8060    17.8680 hc         1 CPI       0.024200
     17 HB3         19.2150    15.2600    19.5240 hc         1 CPI       0.024200
     18 HA          16.8670    15.4480    19.0900 h1         1 CPI       0.034700
     19 OXT         17.1240    17.1440    16.9560 o          1 CPI      -0.728000
@<TRIPOS>BOND
     1     1     2 1   
     2     1     6 1   
     3     1     9 1   
     4     2     3 1   
     5     2    10 1   
     6     2    11 1   
     7     3     4 1   
     8     3    12 1   
     9     3    13 1   
    10     4     5 1   
    11     4    14 1   
    12     4    15 1   
    13     5     6 1   
    14     5    16 1   
    15     5    17 1   
    16     6     7 1   
    17     6    18 1   
    18     7     8 1   
    19     7    19 1   
@<TRIPOS>SUBSTRUCTURE
     1 CPI         1 TEMP              0 ****  ****    0 ROOT
