@<TRIPOS>MOLECULE
CPL
  132   131     1     0     0
SMALL
abcg2


@<TRIPOS>ATOM
      1 C1          -0.6390    -5.1080     2.3130 c3         1 CPL       0.203600
      2 C2          -0.9670    -3.8380     3.0780 c3         1 CPL       0.171300
      3 C3           0.2020    -3.1440     3.7370 c3         1 CPL       0.171600
      4 C4           1.5030    -5.7450    -2.1950 c3         1 CPL       0.213600
      5 C5           2.5800    -4.8930    -2.8270 c3         1 CPL       0.085600
      6 C6           4.4400    -6.0430    -1.6740 c3         1 CPL       0.072233
      7 C7           4.8270    -4.0290    -2.9740 c3         1 CPL       0.072233
      8 C8           3.6930    -3.8850    -0.8450 c3         1 CPL       0.072233
      9 C11          2.2460    -2.1210     3.1800 c          1 CPL       0.593100
     10 C12          3.1640    -1.7870     2.0370 c3         1 CPL      -0.137400
     11 C13          4.3240    -0.8860     2.4270 c3         1 CPL      -0.073400
     12 C14          5.2340    -0.5690     1.2460 c3         1 CPL      -0.070400
     13 C15          6.3870     0.3450     1.6400 c3         1 CPL      -0.079400
     14 C16          7.3090     0.7180     0.4860 c3         1 CPL      -0.071400
     15 C17          8.4260     1.6590     0.9170 c3         1 CPL      -0.076400
     16 C18          9.3640     2.0710    -0.2110 c3         1 CPL      -0.072400
     17 C19         10.4470     3.0370     0.2510 c3         1 CPL      -0.075400
     18 C20         11.4000     3.4710    -0.8560 c3         1 CPL      -0.073400
     19 C21         12.4620     4.4500    -0.3720 c3         1 CPL      -0.075400
     20 C22         13.4260     4.8960    -1.4650 c3         1 CPL      -0.073400
     21 C23         14.4800     5.8770    -0.9670 c3         1 CPL      -0.075400
     22 C24         15.4500     6.3270    -2.0530 c3         1 CPL      -0.075400
     23 C25         16.5090     7.2990    -1.5480 c3         1 CPL      -0.075400
     24 C26         17.4710     7.7480    -2.6400 c3         1 CPL      -0.088100
     25 C32         -3.4030    -1.9370     1.0540 c3         1 CPL      -0.137400
     26 C33         -4.9170    -1.8740     0.9260 c3         1 CPL      -0.069400
     27 C34         -5.3600    -0.8340    -0.0950 c3         1 CPL      -0.075400
     28 C35         -6.8740    -0.7600    -0.2380 c3         1 CPL      -0.075400
     29 C36         -7.3320     0.2600    -1.2720 c3         1 CPL      -0.074400
     30 C37         -8.8470     0.3060    -1.4310 c3         1 CPL      -0.073400
     31 C38         -9.3090     1.3380    -2.4610 c3         1 CPL      -0.043200
     32 C39        -10.7860     1.2760    -2.6920 c2         1 CPL      -0.216200
     33 C40        -11.7080     2.1620    -2.3210 c2         1 CPL      -0.212200
     34 C41        -11.4900     3.4650    -1.6050 c3         1 CPL      -0.012000
     35 C42        -11.8030     4.6260    -2.5060 c2         1 CPL      -0.211200
     36 C43        -12.8450     5.4530    -2.4210 c2         1 CPL      -0.217200
     37 C44        -13.9300     5.4440    -1.3900 c3         1 CPL      -0.043200
     38 C45        -13.8560     6.6530    -0.4570 c3         1 CPL      -0.072400
     39 C46        -14.9820     6.6770     0.5680 c3         1 CPL      -0.076400
     40 C47        -14.9200     7.8780     1.5030 c3         1 CPL      -0.075400
     41 C48        -16.0400     7.8850     2.5340 c3         1 CPL      -0.088100
     42 N            3.8700    -4.7230    -2.0660 n4         1 CPL      -0.485000
     43 O2          -1.6100    -2.8830     2.2290 os         1 CPL      -0.429100
     44 O3           1.1390    -2.7170     2.7540 os         1 CPL      -0.405100
     45 O11          2.4750    -1.9020     4.3440 o          1 CPL      -0.499000
     46 O31         -3.6150    -3.8260     2.5340 o          1 CPL      -0.494000
     47 O1P          2.0330    -6.4220     0.8250 o          1 CPL      -0.816500
     48 O2P         -0.3370    -7.0980     0.0250 o          1 CPL      -0.816500
     49 O3P          0.0460    -4.8000     1.1210 os         1 CPL      -0.575400
     50 O4P          0.9110    -5.1210    -1.0800 os         1 CPL      -0.572400
     51 P            0.6910    -6.0380     0.2720 p5         1 CPL       1.378800
     52 HC11        -0.0480    -5.7500     2.9790 h1         1 CPL       0.043700
     53 HC12        -1.5680    -5.6440     2.0960 h1         1 CPL       0.043700
     54 HC2         -1.6300    -4.1270     3.9000 h1         1 CPL       0.065700
     55 HC31         0.6680    -3.8410     4.4380 h1         1 CPL       0.053200
     56 HC32        -0.1620    -2.2880     4.3120 h1         1 CPL       0.053200
     57 HC41         1.8930    -6.7430    -1.9710 h1         1 CPL       0.055200
     58 HC42         0.7540    -5.8830    -2.9810 h1         1 CPL       0.055200
     59 HC51         2.8490    -5.3570    -3.7760 hx         1 CPL       0.079200
     60 HC52         2.2080    -3.8910    -3.0410 hx         1 CPL       0.079200
     61 HC61         4.5010    -6.6810    -2.5520 hx         1 CPL       0.095922
     62 HC62         5.4370    -5.8840    -1.2700 hx         1 CPL       0.095922
     63 HC63         3.8100    -6.4970    -0.9150 hx         1 CPL       0.095922
     64 HC71         4.4100    -3.0670    -3.2620 hx         1 CPL       0.095922
     65 HC72         5.7680    -3.8790    -2.4520 hx         1 CPL       0.095922
     66 HC73         4.9930    -4.6370    -3.8590 hx         1 CPL       0.095922
     67 HC81         3.1250    -4.4330    -0.1010 hx         1 CPL       0.095922
     68 HC82         4.6780    -3.6490    -0.4470 hx         1 CPL       0.095922
     69 HC83         3.1830    -2.9640    -1.1150 hx         1 CPL       0.095922
     70 H121         2.5760    -1.3410     1.2300 hc         1 CPL       0.063200
     71 H122         3.5420    -2.7370     1.6430 hc         1 CPL       0.063200
     72 H131         4.9100    -1.3600     3.2180 hc         1 CPL       0.059200
     73 H132         3.9380     0.0480     2.8440 hc         1 CPL       0.059200
     74 H141         4.6480    -0.0970     0.4500 hc         1 CPL       0.025700
     75 H142         5.6310    -1.4990     0.8240 hc         1 CPL       0.025700
     76 H151         6.9750    -0.1350     2.4300 hc         1 CPL       0.045200
     77 H152         5.9800     1.2620     2.0830 hc         1 CPL       0.045200
     78 H161         6.7220     1.1890    -0.3100 hc         1 CPL       0.031700
     79 H162         7.7390    -0.1900     0.0510 hc         1 CPL       0.031700
     80 H171         9.0100     1.1850     1.7140 hc         1 CPL       0.040700
     81 H172         7.9850     2.5580     1.3620 hc         1 CPL       0.040700
     82 H181         8.7820     2.5350    -1.0160 hc         1 CPL       0.035200
     83 H182         9.8280     1.1800    -0.6460 hc         1 CPL       0.035200
     84 H191        11.0240     2.5730     1.0600 hc         1 CPL       0.039200
     85 H192         9.9750     3.9240     0.6890 hc         1 CPL       0.039200
     86 H201        10.8260     3.9290    -1.6690 hc         1 CPL       0.036200
     87 H202        11.8860     2.5890    -1.2870 hc         1 CPL       0.036200
     88 H211        13.0310     3.9930     0.4450 hc         1 CPL       0.037700
     89 H212        11.9720     5.3310     0.0590 hc         1 CPL       0.037700
     90 H221        12.8590     5.3540    -2.2830 hc         1 CPL       0.036700
     91 H222        13.9210     4.0180    -1.8940 hc         1 CPL       0.036700
     92 H231        15.0440     5.4180    -0.1480 hc         1 CPL       0.037700
     93 H232        13.9840     6.7550    -0.5380 hc         1 CPL       0.037700
     94 H241        14.8890     6.7940    -2.8700 hc         1 CPL       0.036700
     95 H242        15.9420     5.4500    -2.4870 hc         1 CPL       0.036700
     96 H251        17.0720     6.8300    -0.7350 hc         1 CPL       0.036700
     97 H252        16.0170     8.1740    -1.1100 hc         1 CPL       0.036700
     98 H261        18.2320     8.4250    -2.2510 hc         1 CPL       0.031700
     99 H262        17.9840     6.8940    -3.0870 hc         1 CPL       0.031700
    100 H263        16.9420     8.2690    -3.4410 hc         1 CPL       0.031700
    101 H321        -2.9980    -0.9670     1.3560 hc         1 CPL       0.070700
    102 H322        -2.9490    -2.1540     0.0810 hc         1 CPL       0.070700
    103 H331        -5.3060    -2.8530     0.6350 hc         1 CPL       0.054700
    104 H332        -5.3600    -1.6400     1.8980 hc         1 CPL       0.054700
    105 H341        -4.9710     0.1500     0.1880 hc         1 CPL       0.035700
    106 H342        -4.9150    -1.0690    -1.0690 hc         1 CPL       0.035700
    107 H351        -7.2600    -1.7490    -0.5100 hc         1 CPL       0.040700
    108 H352        -7.3190    -0.5180     0.7330 hc         1 CPL       0.040700
    109 H361        -6.9640     1.2530    -0.9940 hc         1 CPL       0.035700
    110 H362        -6.8750     0.0260    -2.2400 hc         1 CPL       0.035700
    111 H371        -9.2110    -0.6860    -1.7200 hc         1 CPL       0.041200
    112 H372        -9.3120     0.5320    -0.4660 hc         1 CPL       0.041200
    113 H381        -8.9950     2.3340    -2.1430 hc         1 CPL       0.042700
    114 H382        -8.7960     1.1420    -3.4090 hc         1 CPL       0.042700
    115 H39        -11.1330     0.3790    -3.2000 ha         1 CPL       0.166000
    116 H40        -12.7450     1.9470    -2.5660 ha         1 CPL       0.167000
    117 H411       -12.1190     3.4870    -0.7120 hc         1 CPL       0.051200
    118 H412       -10.4580     3.5480    -1.2580 hc         1 CPL       0.051200
    119 H42        -11.1000     4.7720    -3.3210 ha         1 CPL       0.167000
    120 H43        -12.9190     6.2440    -3.1630 ha         1 CPL       0.165000
    121 H441       -14.9010     5.4490    -1.8970 hc         1 CPL       0.043700
    122 H442       -13.9020     4.5270    -0.7970 hc         1 CPL       0.043700
    123 H451       -12.8900     6.6490     0.0590 hc         1 CPL       0.039200
    124 H452       -13.8810     7.5740    -1.0490 hc         1 CPL       0.039200
    125 H461       -15.9470     6.6700     0.0490 hc         1 CPL       0.037200
    126 H462       -14.9520     5.7550     1.1610 hc         1 CPL       0.037200
    127 H471       -13.9520     7.8880     2.0150 hc         1 CPL       0.036700
    128 H472       -14.9580     8.7990     0.9120 hc         1 CPL       0.036700
    129 H481       -17.0190     7.8980     2.0510 hc         1 CPL       0.031367
    130 H482       -15.9990     6.9970     3.1660 hc         1 CPL       0.031367
    131 H483       -15.9820     8.7580     3.1850 hc         1 CPL       0.031367
    132 C31         -2.9220    -2.9860     2.0170 c          1 CPL       0.599100
@<TRIPOS>BOND
     1     1     2 1   
     2     1    49 1   
     3     1    52 1   
     4     1    53 1   
     5     2     3 1   
     6     2    43 1   
     7     2    54 1   
     8     3    44 1   
     9     3    55 1   
    10     3    56 1   
    11     4     5 1   
    12     4    50 1   
    13     4    57 1   
    14     4    58 1   
    15     5    42 1   
    16     5    59 1   
    17     5    60 1   
    18     6    42 1   
    19     6    61 1   
    20     6    62 1   
    21     6    63 1   
    22     7    42 1   
    23     7    64 1   
    24     7    65 1   
    25     7    66 1   
    26     8    42 1   
    27     8    67 1   
    28     8    68 1   
    29     8    69 1   
    30     9    10 1   
    31     9    44 1   
    32     9    45 2   
    33    10    11 1   
    34    10    70 1   
    35    10    71 1   
    36    11    12 1   
    37    11    72 1   
    38    11    73 1   
    39    12    13 1   
    40    12    74 1   
    41    12    75 1   
    42    13    14 1   
    43    13    76 1   
    44    13    77 1   
    45    14    15 1   
    46    14    78 1   
    47    14    79 1   
    48    15    16 1   
    49    15    80 1   
    50    15    81 1   
    51    16    17 1   
    52    16    82 1   
    53    16    83 1   
    54    17    18 1   
    55    17    84 1   
    56    17    85 1   
    57    18    19 1   
    58    18    86 1   
    59    18    87 1   
    60    19    20 1   
    61    19    88 1   
    62    19    89 1   
    63    20    21 1   
    64    20    90 1   
    65    20    91 1   
    66    21    22 1   
    67    21    92 1   
    68    21    93 1   
    69    22    23 1   
    70    22    94 1   
    71    22    95 1   
    72    23    24 1   
    73    23    96 1   
    74    23    97 1   
    75    24    98 1   
    76    24    99 1   
    77    24   100 1   
    78    25    26 1   
    79    25   101 1   
    80    25   102 1   
    81    25   132 1   
    82    26    27 1   
    83    26   103 1   
    84    26   104 1   
    85    27    28 1   
    86    27   105 1   
    87    27   106 1   
    88    28    29 1   
    89    28   107 1   
    90    28   108 1   
    91    29    30 1   
    92    29   109 1   
    93    29   110 1   
    94    30    31 1   
    95    30   111 1   
    96    30   112 1   
    97    31    32 1   
    98    31   113 1   
    99    31   114 1   
   100    32    33 2   
   101    32   115 1   
   102    33    34 1   
   103    33   116 1   
   104    34    35 1   
   105    34   117 1   
   106    34   118 1   
   107    35    36 2   
   108    35   119 1   
   109    36    37 1   
   110    36   120 1   
   111    37    38 1   
   112    37   121 1   
   113    37   122 1   
   114    38    39 1   
   115    38   123 1   
   116    38   124 1   
   117    39    40 1   
   118    39   125 1   
   119    39   126 1   
   120    40    41 1   
   121    40   127 1   
   122    40   128 1   
   123    41   129 1   
   124    41   130 1   
   125    41   131 1   
   126    43   132 1   
   127    46   132 2   
   128    47    51 1   
   129    48    51 1   
   130    49    51 1   
   131    50    51 1   
@<TRIPOS>SUBSTRUCTURE
     1 CPL         1 TEMP              0 ****  ****    0 ROOT
