@<TRIPOS>MOLECULE
CPL
  132   131     1     0     0
SMALL
No Charge or Current Charge


@<TRIPOS>ATOM
      1 C1          -0.4040    -6.2580     1.8220 c3         1 CPL       0.203600
      2 C2          -1.3040    -5.0640     2.2840 c3         1 CPL       0.171300
      3 C3          -0.8760    -4.3690     3.6080 c3         1 CPL       0.171600
      4 C4           1.7950    -5.1320    -1.5120 c3         1 CPL       0.213600
      5 C5           1.1590    -3.8840    -0.8510 c3         1 CPL       0.085600
      6 C6           2.8620    -2.1630    -1.5700 c3         1 CPL       0.072233
      7 C7           1.1960    -1.6290     0.2130 c3         1 CPL       0.072233
      8 C8           3.0410    -3.2370     0.6890 c3         1 CPL       0.072233
      9 C11          1.0050    -3.2710     4.6350 c          1 CPL       0.593100
     10 C12          2.4880    -2.9410     4.4510 c3         1 CPL      -0.137400
     11 C13          2.6850    -1.5460     3.8150 c3         1 CPL      -0.073400
     12 C14          4.1660    -1.2320     3.5070 c3         1 CPL      -0.070400
     13 C15          4.3530     0.0510     2.6690 c3         1 CPL      -0.079400
     14 C16          5.8320     0.3370     2.3260 c3         1 CPL      -0.071400
     15 C17          6.0150     1.5760     1.4230 c3         1 CPL      -0.076400
     16 C18          7.4930     1.8540     1.0660 c3         1 CPL      -0.072400
     17 C19          7.6710     3.0720     0.1320 c3         1 CPL      -0.075400
     18 C20          9.1470     3.3470    -0.2320 c3         1 CPL      -0.073400
     19 C21          9.3200     4.5600    -1.1740 c3         1 CPL      -0.075400
     20 C22         10.7950     4.8360    -1.5410 c3         1 CPL      -0.073400
     21 C23         10.9660     6.0540    -2.4760 c3         1 CPL      -0.075400
     22 C24         12.4410     6.3340    -2.8400 c3         1 CPL      -0.075400
     23 C25         12.6110     7.5580    -3.7670 c3         1 CPL      -0.075400
     24 C26         14.0830     7.8460    -4.1220 c3         1 CPL      -0.088100
     25 C32         -2.2390    -3.1820    -0.8500 c3         1 CPL      -0.137400
     26 C33         -3.6400    -2.5250    -0.8790 c3         1 CPL      -0.069400
     27 C34         -3.7450    -1.3720    -1.9020 c3         1 CPL      -0.075400
     28 C35         -5.1760    -0.8060    -2.0350 c3         1 CPL      -0.075400
     29 C36         -5.2820     0.3340    -3.0720 c3         1 CPL      -0.074400
     30 C37         -6.7290     0.8340    -3.2820 c3         1 CPL      -0.073400
     31 C38         -6.8310     1.9760    -4.3160 c3         1 CPL      -0.043200
     32 C39         -8.2670     2.3950    -4.5760 c2         1 CPL      -0.216200
     33 C40         -8.9840     3.3130    -3.9030 c2         1 CPL      -0.212200
     34 C41         -8.5480     4.1230    -2.6980 c3         1 CPL      -0.012000
     35 C42         -8.6100     5.6080    -3.0020 c2         1 CPL      -0.211200
     36 C43         -9.3660     6.5380    -2.3910 c2         1 CPL      -0.217200
     37 C44        -10.3700     6.3140    -1.2750 c3         1 CPL      -0.043200
     38 C45         -9.7150     6.3620     0.1210 c3         1 CPL      -0.072400
     39 C46        -10.7240     6.1340     1.2690 c3         1 CPL      -0.076400
     40 C47        -10.0650     6.1610     2.6650 c3         1 CPL      -0.075400
     41 C48        -11.0690     5.9310     3.8110 c3         1 CPL      -0.088100
     42 N            2.0700    -2.7360    -0.3860 n4         1 CPL      -0.485000
     43 O2          -1.4350    -4.0600     1.2440 os         1 CPL      -0.429100
     44 O3           0.4850    -3.8990     3.5350 os         1 CPL      -0.405100
     45 O11          0.3680    -2.9930     5.6420 o          1 CPL      -0.499000
     46 O31         -2.7440    -5.4220    -0.0680 o          1 CPL      -0.494000
     47 O1P          3.3050    -6.4400     0.7530 o          1 CPL      -0.816500
     48 O2P          1.5920    -8.2090     0.8560 o          1 CPL      -0.816500
     49 O3P          0.9300    -5.8250     1.5080 os         1 CPL      -0.575400
     50 O4P          1.3230    -6.3300    -0.8690 os         1 CPL      -0.572400
     51 P            1.8590    -6.7650     0.5900 p5         1 CPL       1.378800
     52 HC11        -0.3720    -6.9980     2.6330 h1         1 CPL       0.043700
     53 HC12        -0.8650    -6.7510     0.9570 h1         1 CPL       0.043700
     54 HC2         -2.2960    -5.4860     2.4930 h1         1 CPL       0.065700
     55 HC31        -0.9810    -5.0910     4.4290 h1         1 CPL       0.053200
     56 HC32        -1.5620    -3.5350     3.8060 h1         1 CPL       0.053200
     57 HC41         2.8890    -5.0650    -1.4520 h1         1 CPL       0.055200
     58 HC42         1.5310    -5.1410    -2.5770 h1         1 CPL       0.055200
     59 HC51         0.4460    -3.4610    -1.5610 hx         1 CPL       0.079200
     60 HC52         0.5920    -4.2040     0.0220 hx         1 CPL       0.079200
     61 HC61         2.1650    -1.8100    -2.3330 hx         1 CPL       0.095922
     62 HC62         3.4780    -1.3310    -1.2220 hx         1 CPL       0.095922
     63 HC63         3.5040    -2.9400    -1.9900 hx         1 CPL       0.095922
     64 HC71         0.6190    -2.0390     1.0460 hx         1 CPL       0.095922
     65 HC72         1.8340    -0.8180     0.5690 hx         1 CPL       0.095922
     66 HC73         0.5170    -1.2510    -0.5540 hx         1 CPL       0.095922
     67 HC81         3.6890    -4.0050     0.2640 hx         1 CPL       0.095922
     68 HC82         3.6480    -2.4020     1.0430 hx         1 CPL       0.095922
     69 HC83         2.4680    -3.6600     1.5180 hx         1 CPL       0.095922
     70 H121         2.9260    -3.6750     3.7640 hc         1 CPL       0.063200
     71 H122         2.9940    -2.9700     5.4230 hc         1 CPL       0.063200
     72 H131         2.2810    -0.7760     4.4850 hc         1 CPL       0.059200
     73 H132         2.1020    -1.4930     2.8890 hc         1 CPL       0.059200
     74 H141         4.6130    -2.0760     2.9690 hc         1 CPL       0.025700
     75 H142         4.7170    -1.1340     4.4520 hc         1 CPL       0.025700
     76 H151         3.9350     0.9060     3.2150 hc         1 CPL       0.045200
     77 H152         3.7820    -0.0440     1.7370 hc         1 CPL       0.045200
     78 H161         6.2590    -0.5390     1.8210 hc         1 CPL       0.031700
     79 H162         6.3970     0.4780     3.2550 hc         1 CPL       0.031700
     80 H171         5.5940     2.4560     1.9260 hc         1 CPL       0.040700
     81 H172         5.4430     1.4330     0.4970 hc         1 CPL       0.040700
     82 H181         7.9190     0.9660     0.5830 hc         1 CPL       0.035200
     83 H182         8.0610     2.0210     1.9900 hc         1 CPL       0.035200
     84 H191         7.2470     3.9620     0.6150 hc         1 CPL       0.039200
     85 H192         7.0980     2.9040    -0.7890 hc         1 CPL       0.039200
     86 H201         9.5720     2.4560    -0.7110 hc         1 CPL       0.036200
     87 H202         9.7190     3.5210     0.6880 hc         1 CPL       0.036200
     88 H211         8.8950     5.4510    -0.6950 hc         1 CPL       0.037700
     89 H212         8.7460     4.3860    -2.0930 hc         1 CPL       0.037700
     90 H221        11.2180     3.9470    -2.0250 hc         1 CPL       0.036700
     91 H222        11.3690     5.0050    -0.6210 hc         1 CPL       0.036700
     92 H231        10.5400     6.9420    -1.9920 hc         1 CPL       0.037700
     93 H232        10.3930     5.8850    -3.3960 hc         1 CPL       0.037700
     94 H241        12.8660     5.4490    -3.3300 hc         1 CPL       0.036700
     95 H242        13.0150     6.4970    -1.9190 hc         1 CPL       0.036700
     96 H251        12.1820     8.4440    -3.2820 hc         1 CPL       0.036700
     97 H252        12.0460     7.3940    -4.6930 hc         1 CPL       0.036700
     98 H261        14.1520     8.7220    -4.7800 hc         1 CPL       0.031700
     99 H262        14.6680     8.0500    -3.2170 hc         1 CPL       0.031700
    100 H263        14.5320     6.9910    -4.6410 hc         1 CPL       0.031700
    101 H321        -1.5040    -2.4230    -0.5610 hc         1 CPL       0.070700
    102 H322        -2.0080    -3.5610    -1.8520 hc         1 CPL       0.070700
    103 H331        -4.3880    -3.2910    -1.1250 hc         1 CPL       0.054700
    104 H332        -3.8880    -2.1480     0.1220 hc         1 CPL       0.054700
    105 H341        -3.0590    -0.5670    -1.6100 hc         1 CPL       0.035700
    106 H342        -3.4140    -1.7330    -2.8840 hc         1 CPL       0.035700
    107 H351        -5.8560    -1.6170    -2.3250 hc         1 CPL       0.040700
    108 H352        -5.5150    -0.4390    -1.0580 hc         1 CPL       0.040700
    109 H361        -4.6510     1.1730    -2.7500 hc         1 CPL       0.035700
    110 H362        -4.8830    -0.0150    -4.0330 hc         1 CPL       0.035700
    111 H371        -7.3540    -0.0050    -3.6150 hc         1 CPL       0.041200
    112 H372        -7.1390     1.1780    -2.3240 hc         1 CPL       0.041200
    113 H381        -6.2360     2.8290    -3.9680 hc         1 CPL       0.042700
    114 H382        -6.3700     1.6540    -5.2580 hc         1 CPL       0.042700
    115 H39         -8.7230     1.8790    -5.4240 ha         1 CPL       0.166000
    116 H40        -10.0110     3.5200    -4.2110 ha         1 CPL       0.167000
    117 H411        -9.1840     3.8660    -1.8430 hc         1 CPL       0.051200
    118 H412        -7.5310     3.8610    -2.3870 hc         1 CPL       0.051200
    119 H42         -7.9340     5.9120    -3.8040 ha         1 CPL       0.167000
    120 H43         -9.2950     7.5810    -2.7100 ha         1 CPL       0.165000
    121 H441       -11.1590     7.0750    -1.3300 hc         1 CPL       0.043700
    122 H442       -10.8750     5.3490    -1.4020 hc         1 CPL       0.043700
    123 H451        -8.9280     5.5980     0.1750 hc         1 CPL       0.039200
    124 H452        -9.2260     7.3360     0.2570 hc         1 CPL       0.039200
    125 H461       -11.5030     6.9060     1.2240 hc         1 CPL       0.037200
    126 H462       -11.2220     5.1670     1.1240 hc         1 CPL       0.037200
    127 H471        -9.2860     5.3890     2.7140 hc         1 CPL       0.036700
    128 H472        -9.5670     7.1270     2.8150 hc         1 CPL       0.036700
    129 H481       -11.8420     6.7100     3.8100 hc         1 CPL       0.031367
    130 H482       -11.5600     4.9550     3.7070 hc         1 CPL       0.031367
    131 H483       -10.5570     5.9560     4.7800 hc         1 CPL       0.031367
    132 C31         -2.1840    -4.3540     0.1330 c          1 CPL       0.599100
@<TRIPOS>BOND
     1     1     2 1   
     2     1    49 1   
     3     1    52 1   
     4     1    53 1   
     5     2     3 1   
     6     2    43 1   
     7     2    54 1   
     8     3    44 1   
     9     3    55 1   
    10     3    56 1   
    11     4     5 1   
    12     4    50 1   
    13     4    57 1   
    14     4    58 1   
    15     5    42 1   
    16     5    59 1   
    17     5    60 1   
    18     6    42 1   
    19     6    61 1   
    20     6    62 1   
    21     6    63 1   
    22     7    42 1   
    23     7    64 1   
    24     7    65 1   
    25     7    66 1   
    26     8    42 1   
    27     8    67 1   
    28     8    68 1   
    29     8    69 1   
    30     9    10 1   
    31     9    44 1   
    32     9    45 2   
    33    10    11 1   
    34    10    70 1   
    35    10    71 1   
    36    11    12 1   
    37    11    72 1   
    38    11    73 1   
    39    12    13 1   
    40    12    74 1   
    41    12    75 1   
    42    13    14 1   
    43    13    76 1   
    44    13    77 1   
    45    14    15 1   
    46    14    78 1   
    47    14    79 1   
    48    15    16 1   
    49    15    80 1   
    50    15    81 1   
    51    16    17 1   
    52    16    82 1   
    53    16    83 1   
    54    17    18 1   
    55    17    84 1   
    56    17    85 1   
    57    18    19 1   
    58    18    86 1   
    59    18    87 1   
    60    19    20 1   
    61    19    88 1   
    62    19    89 1   
    63    20    21 1   
    64    20    90 1   
    65    20    91 1   
    66    21    22 1   
    67    21    92 1   
    68    21    93 1   
    69    22    23 1   
    70    22    94 1   
    71    22    95 1   
    72    23    24 1   
    73    23    96 1   
    74    23    97 1   
    75    24    98 1   
    76    24    99 1   
    77    24   100 1   
    78    25    26 1   
    79    25   101 1   
    80    25   102 1   
    81    25   132 1   
    82    26    27 1   
    83    26   103 1   
    84    26   104 1   
    85    27    28 1   
    86    27   105 1   
    87    27   106 1   
    88    28    29 1   
    89    28   107 1   
    90    28   108 1   
    91    29    30 1   
    92    29   109 1   
    93    29   110 1   
    94    30    31 1   
    95    30   111 1   
    96    30   112 1   
    97    31    32 1   
    98    31   113 1   
    99    31   114 1   
   100    32    33 2   
   101    32   115 1   
   102    33    34 1   
   103    33   116 1   
   104    34    35 1   
   105    34   117 1   
   106    34   118 1   
   107    35    36 2   
   108    35   119 1   
   109    36    37 1   
   110    36   120 1   
   111    37    38 1   
   112    37   121 1   
   113    37   122 1   
   114    38    39 1   
   115    38   123 1   
   116    38   124 1   
   117    39    40 1   
   118    39   125 1   
   119    39   126 1   
   120    40    41 1   
   121    40   127 1   
   122    40   128 1   
   123    41   129 1   
   124    41   130 1   
   125    41   131 1   
   126    43   132 1   
   127    46   132 2   
   128    47    51 1   
   129    48    51 1   
   130    49    51 1   
   131    50    51 1   
@<TRIPOS>SUBSTRUCTURE
     1 CPL         1 TEMP              0 ****  ****    0 ROOT
