@<TRIPOS>MOLECULE
CPM
   31    31     1     0     0
SMALL
abcg2


@<TRIPOS>ATOM
      1 CA1         -0.8360    -0.1280     1.8480 c3         1 CPM      -0.173400
      2 CA          -0.5540     0.2280     0.3920 c3         1 CPM      -0.177700
      3 C           -1.9190     0.4530    -0.3060 c          1 CPM       0.725000
      4 O           -2.6380    -0.5590    -0.4270 o          1 CPM      -0.718000
      5 CB           0.2530    -0.8620    -0.3210 c3         1 CPM      -0.024100
      6 CG           0.5480    -0.5060    -1.7500 ca         1 CPM      -0.041300
      7 CD1          1.6070     0.3460    -2.0630 ca         1 CPM      -0.093500
      8 CD2         -0.2370    -0.9920    -2.7930 ca         1 CPM      -0.093500
      9 CE1          1.8740     0.7030    -3.3770 ca         1 CPM      -0.122000
     10 CE2          0.0270    -0.6400    -4.1100 ca         1 CPM      -0.122000
     11 CZ           1.0830     0.2100    -4.4080 ca         1 CPM      -0.130000
     12 OXT         -2.1930     1.6130    -0.6630 o          1 CPM      -0.718000
     13 S            0.6180     0.0820     2.9230 s6         1 CPM       0.501000
     14 N1           1.2510     1.4850     2.8000 n2         1 CPM      -0.661900
     15 N2           1.7280    -0.9690     2.6890 n2         1 CPM      -0.661900
     16 CM          -0.1670    -0.1460     4.5300 c3         1 CPM      -0.326100
     17 HA11        -1.1810    -1.1570     1.9700 h1         1 CPM       0.078700
     18 HA12        -1.5940     0.5340     2.2760 h1         1 CPM       0.078700
     19 HA           0.0120     1.1640     0.3740 hc         1 CPM       0.060700
     20 HB1          1.1880    -1.0290     0.2170 hc         1 CPM       0.042700
     21 HB2         -0.3100    -1.7970    -0.2820 hc         1 CPM       0.042700
     22 HD1          2.2340     0.7310    -1.2660 ha         1 CPM       0.121000
     23 HD2         -1.0670    -1.6500    -2.5680 ha         1 CPM       0.121000
     24 HE1          2.7050     1.3620    -3.5980 ha         1 CPM       0.094500
     25 HE2         -0.5960    -1.0310    -4.9050 ha         1 CPM       0.094500
     26 HZ           1.2910     0.4840    -5.4350 ha         1 CPM       0.090000
     27 HN1          0.5560     2.1970     3.0030 hn         1 CPM       0.392400
     28 HN2          1.3210    -1.8980     2.6550 hn         1 CPM       0.392400
     29 HM1          0.6260    -0.0620     5.2700 h1         1 CPM       0.076700
     30 HM2         -0.9200     0.6220     4.6970 h1         1 CPM       0.076700
     31 HM3         -0.6230    -1.1330     4.5790 h1         1 CPM       0.076700
@<TRIPOS>BOND
     1     1     2 1   
     2     1    13 1   
     3     1    17 1   
     4     1    18 1   
     5     2     3 1   
     6     2     5 1   
     7     2    19 1   
     8     3     4 1   
     9     3    12 1   
    10     5     6 1   
    11     5    20 1   
    12     5    21 1   
    13     6     7 ar  
    14     6     8 ar  
    15     7     9 ar  
    16     7    22 1   
    17     8    10 ar  
    18     8    23 1   
    19     9    11 ar  
    20     9    24 1   
    21    10    11 ar  
    22    10    25 1   
    23    11    26 1   
    24    13    14 2   
    25    13    15 2   
    26    13    16 1   
    27    14    27 1   
    28    15    28 1   
    29    16    29 1   
    30    16    30 1   
    31    16    31 1   
@<TRIPOS>SUBSTRUCTURE
     1 CPM         1 TEMP              0 ****  ****    0 ROOT
