@<TRIPOS>MOLECULE
CPM
   31    31     1     0     0
SMALL
No Charge or Current Charge


@<TRIPOS>ATOM
      1 CA1         -0.9210    -0.1390     1.9250 c3         1 CPM      -0.173400
      2 CA          -0.6300     0.2160     0.4310 c3         1 CPM      -0.177700
      3 C           -1.9570     0.4840    -0.3210 c          1 CPM       0.725000
      4 O           -2.7720    -0.4250    -0.4110 o          1 CPM      -0.718000
      5 CB           0.2120    -0.8590    -0.3120 c3         1 CPM      -0.024100
      6 CG           0.5270    -0.4730    -1.7530 ca         1 CPM      -0.041300
      7 CD1          1.5140     0.4950    -2.0270 ca         1 CPM      -0.093500
      8 CD2         -0.1580    -1.0830    -2.8230 ca         1 CPM      -0.093500
      9 CE1          1.8100     0.8500    -3.3550 ca         1 CPM      -0.122000
     10 CE2          0.1380    -0.7270    -4.1500 ca         1 CPM      -0.122000
     11 CZ           1.1220     0.2400    -4.4170 ca         1 CPM      -0.130000
     12 OXT         -2.1560     1.6100    -0.7530 o          1 CPM      -0.718000
     13 S            0.4930    -0.0360     3.0590 s6         1 CPM       0.501000
     14 N1           1.4090     1.1970     2.8980 n2         1 CPM      -0.661900
     15 N2           1.5990    -1.0980     2.8880 n2         1 CPM      -0.661900
     16 CM          -0.1400    -0.0980     4.7360 c3         1 CPM      -0.326100
     17 HA11        -1.3380    -1.1500     2.0100 h1         1 CPM       0.078700
     18 HA12        -1.6620     0.5670     2.3210 h1         1 CPM       0.078700
     19 HA          -0.0630     1.1540     0.4110 hc         1 CPM       0.060700
     20 HB1          1.1580    -1.0170     0.2150 hc         1 CPM       0.042700
     21 HB2         -0.3160    -1.8210    -0.2800 hc         1 CPM       0.042700
     22 HD1          2.0510     0.9710    -1.2100 ha         1 CPM       0.121000
     23 HD2         -0.9230    -1.8300    -2.6260 ha         1 CPM       0.121000
     24 HE1          2.5720     1.5990    -3.5600 ha         1 CPM       0.094500
     25 HE2         -0.3960    -1.2000    -4.9720 ha         1 CPM       0.094500
     26 HZ           1.3510     0.5150    -5.4440 ha         1 CPM       0.090000
     27 HN1          1.0280     1.7920     2.1530 hn         1 CPM       0.392400
     28 HN2          1.3190    -1.7470     2.1440 hn         1 CPM       0.392400
     29 HM1          0.7080    -0.0350     5.4270 h1         1 CPM       0.076700
     30 HM2         -0.8190     0.7500     4.8800 h1         1 CPM       0.076700
     31 HM3         -0.6750    -1.0460     4.8660 h1         1 CPM       0.076700
@<TRIPOS>BOND
     1     1     2 1   
     2     1    13 1   
     3     1    17 1   
     4     1    18 1   
     5     2     3 1   
     6     2     5 1   
     7     2    19 1   
     8     3     4 1   
     9     3    12 1   
    10     5     6 1   
    11     5    20 1   
    12     5    21 1   
    13     6     7 ar  
    14     6     8 ar  
    15     7     9 ar  
    16     7    22 1   
    17     8    10 ar  
    18     8    23 1   
    19     9    11 ar  
    20     9    24 1   
    21    10    11 ar  
    22    10    25 1   
    23    11    26 1   
    24    13    14 2   
    25    13    15 2   
    26    13    16 1   
    27    14    27 1   
    28    15    28 1   
    29    16    29 1   
    30    16    30 1   
    31    16    31 1   
@<TRIPOS>SUBSTRUCTURE
     1 CPM         1 TEMP              0 ****  ****    0 ROOT
