@<TRIPOS>MOLECULE
CPN
   34    34     1     0     0
SMALL
bcc


@<TRIPOS>ATOM
      1 C8           0.2900     0.5560     0.8560 c3         1 CPN       0.020000
      2 C7          -0.5910    -0.4360     0.1050 c          1 CPN       0.669100
      3 O7          -0.0890    -1.3130    -0.5810 o          1 CPN      -0.635100
      4 C5          -2.5400     0.7930     0.9760 c3         1 CPN      -0.080000
      5 C           -2.7340     2.0620     0.1120 c          1 CPN       0.908600
      6 O1          -2.2700     2.0400    -1.0380 o          1 CPN      -0.794800
      7 OXT         -3.3390     2.9880     0.6830 o          1 CPN      -0.794800
      8 N4          -1.9210    -0.3110     0.2730 n          1 CPN      -0.427800
      9 C3          -2.7920    -1.1530    -0.5150 c3         1 CPN       0.086000
     10 C2          -3.0920    -2.4410     0.2360 c3         1 CPN       0.093800
     11 N1          -4.0100    -3.3010    -0.5530 nz         1 CPN      -0.828600
     12 N5           1.6820     0.2760     0.6070 n          1 CPN      -0.362000
     13 C9           2.2760     0.7790    -0.5590 c          1 CPN       0.850900
     14 N3           3.5580     0.4440    -0.8140 nc         1 CPN      -0.766100
     15 C4           4.2140    -0.3830    -0.0230 cd         1 CPN       0.781500
     16 C1           3.6150    -0.9640     1.1370 cd         1 CPN      -0.441600
     17 C6           2.3420    -0.6010     1.3950 cc         1 CPN       0.075600
     18 O2           1.6210     1.5090    -1.2910 o          1 CPN      -0.582500
     19 N2           5.4780    -0.6790    -0.3270 nv         1 CPN      -0.931800
     20 H8'1         0.0620     1.5740     0.5480 h1         1 CPN       0.103700
     21 H8'2         0.1110     0.4920     1.9300 h1         1 CPN       0.103700
     22 H5'1        -1.9710     1.0480     1.8720 h1         1 CPN       0.035700
     23 H5'2        -3.5110     0.4570     1.3470 h1         1 CPN       0.035700
     24 H3'1        -3.7170    -0.6100    -0.7130 h1         1 CPN       0.082700
     25 H3'2        -2.3360    -1.3770    -1.4800 h1         1 CPN       0.082700
     26 H2'1        -2.1880    -3.0180     0.4130 hx         1 CPN       0.102700
     27 H2'2        -3.5790    -2.2450     1.1890 hx         1 CPN       0.102700
     28 H1'1        -4.2300    -4.1640    -0.0570 hn         1 CPN       0.448800
     29 H1'2        -4.8970    -2.8380    -0.7480 hn         1 CPN       0.448800
     30 H1'3        -3.6050    -3.5700    -1.4490 hn         1 CPN       0.448800
     31 H5           4.1440    -1.6520     1.7780 ha         1 CPN       0.145000
     32 H6           1.8010    -0.9810     2.2500 h4         1 CPN       0.137000
     33 HN41         5.9110    -0.2760    -1.1400 hn         1 CPN       0.442800
     34 HN42         6.0150    -1.3230     0.2250 hn         1 CPN       0.442800
@<TRIPOS>BOND
     1     1     2 1   
     2     1    12 1   
     3     1    20 1   
     4     1    21 1   
     5     2     3 2   
     6     2     8 1   
     7     4     5 1   
     8     4     8 1   
     9     4    22 1   
    10     4    23 1   
    11     5     6 1   
    12     5     7 1   
    13     8     9 1   
    14     9    10 1   
    15     9    24 1   
    16     9    25 1   
    17    10    11 1   
    18    10    26 1   
    19    10    27 1   
    20    11    28 1   
    21    11    29 1   
    22    11    30 1   
    23    12    13 1   
    24    12    17 1   
    25    13    14 1   
    26    13    18 2   
    27    14    15 2   
    28    15    16 1   
    29    15    19 1   
    30    16    17 2   
    31    16    31 1   
    32    17    32 1   
    33    19    33 1   
    34    19    34 1   
@<TRIPOS>SUBSTRUCTURE
     1 CPN         1 TEMP              0 ****  ****    0 ROOT
