@<TRIPOS>MOLECULE
CPN
   34    34     1     0     0
SMALL
No Charge or Current Charge


@<TRIPOS>ATOM
      1 C8           0.4100     0.3520     0.7640 c3         1 CPN       0.020000
      2 C7          -0.5650    -0.5700    -0.0070 c          1 CPN       0.602100
      3 O7          -0.1490    -1.4760    -0.7230 o          1 CPN      -0.635100
      4 C5          -2.5320     0.7220     1.0040 c3         1 CPN      -0.080000
      5 C           -2.7030     2.0880     0.2960 c          1 CPN       0.698000
      6 O1          -1.8850     2.9640     0.5330 o          1 CPN      -0.689500
      7 OXT         -3.6390     2.2220    -0.4790 o          1 CPN      -0.689500
      8 N4          -1.9630    -0.3660     0.1490 n          1 CPN      -0.360800
      9 C3          -2.9350    -1.2080    -0.5880 c3         1 CPN       0.086000
     10 C2          -3.4510    -2.3880     0.2610 c3         1 CPN       0.065600
     11 N1          -4.4660    -3.2400    -0.4740 nz         1 CPN      -0.966000
     12 N5           1.8590     0.0950     0.5130 n          1 CPN      -0.295000
     13 C9           2.4360     0.5810    -0.6820 c          1 CPN       0.708400
     14 N3           3.7640     0.3330    -0.9150 nc         1 CPN      -0.766100
     15 C4           4.4550    -0.3380    -0.0580 cd         1 CPN       0.781500
     16 C1           3.9490    -0.8540     1.1520 cd         1 CPN      -0.491600
     17 C6           2.6220    -0.6260     1.4260 cc         1 CPN       0.025600
     18 O2           1.7890     1.2180    -1.4980 o          1 CPN      -0.507000
     19 N2           5.7220    -0.5140    -0.3740 nv         1 CPN      -1.042200
     20 H8'1         0.1760     1.3860     0.4930 h1         1 CPN       0.103700
     21 H8'2         0.1960     0.2370     1.8330 h1         1 CPN       0.103700
     22 H5'1        -1.9150     0.8630     1.9000 h1         1 CPN       0.035700
     23 H5'2        -3.5230     0.4100     1.3570 h1         1 CPN       0.035700
     24 H3'1        -3.7880    -0.5850    -0.8860 h1         1 CPN       0.082700
     25 H3'2        -2.4820    -1.5910    -1.5110 h1         1 CPN       0.082700
     26 H2'1        -2.6000    -3.0130     0.5490 hx         1 CPN       0.102700
     27 H2'2        -3.9090    -1.9930     1.1740 hx         1 CPN       0.102700
     28 H1'1        -4.8130    -4.0310     0.0930 hn         1 CPN       0.504000
     29 H1'2        -5.3120    -2.7200    -0.7590 hn         1 CPN       0.504000
     30 H1'3        -4.0950    -3.6680    -1.3380 hn         1 CPN       0.504000
     31 H5           4.5810    -1.4120     1.8320 ha         1 CPN       0.195000
     32 H6           2.0740    -0.9580     2.3040 h4         1 CPN       0.187000
     33 HN41         6.0420     0.1110    -1.1010 hn         1 CPN       0.498000
     34 HN42         6.3560    -0.6480     0.4020 hn         1 CPN       0.498000
@<TRIPOS>BOND
     1     1     2 1   
     2     1    12 1   
     3     1    20 1   
     4     1    21 1   
     5     2     3 2   
     6     2     8 1   
     7     4     5 1   
     8     4     8 1   
     9     4    22 1   
    10     4    23 1   
    11     5     6 1   
    12     5     7 1   
    13     8     9 1   
    14     9    10 1   
    15     9    24 1   
    16     9    25 1   
    17    10    11 1   
    18    10    26 1   
    19    10    27 1   
    20    11    28 1   
    21    11    29 1   
    22    11    30 1   
    23    12    13 1   
    24    12    17 1   
    25    13    14 1   
    26    13    18 2   
    27    14    15 2   
    28    15    16 1   
    29    15    19 1   
    30    16    17 2   
    31    16    31 1   
    32    17    32 1   
    33    19    33 1   
    34    19    34 1   
@<TRIPOS>SUBSTRUCTURE
     1 CPN         1 TEMP              0 ****  ****    0 ROOT
