@<TRIPOS>MOLECULE
CPQ
  135   138     1     0     0
SMALL
bcc


@<TRIPOS>ATOM
      1 C1          -1.7200     1.4630    10.4620 c6         1 CPQ      -0.067400
      2 C2          -0.8860     0.3330     9.8310 c6         1 CPQ      -0.031000
      3 C3          -0.9350     1.4130     7.4950 c6         1 CPQ      -0.109400
      4 C4          -1.2650     1.2720     6.0040 c6         1 CPQ       0.161100
      5 C5          -0.5410     0.0640     5.3950 c5         1 CPQ      -0.028000
      6 C6          -0.8620    -1.1790     6.2490 c5         1 CPQ      -0.064700
      7 C7          -0.2900    -2.3340     5.4360 c5         1 CPQ      -0.071400
      8 C8          -0.5260    -1.9060     3.9740 c5         1 CPQ      -0.078400
      9 C9          -1.0060    -0.4300     3.9980 c5         1 CPQ      -0.050700
     10 C10          0.9630     0.3610     5.3540 c3         1 CPQ      -0.084100
     11 C11          0.5870     0.6970    10.0570 c3         1 CPQ      -0.085100
     12 C12         -3.2170     1.1890    10.5040 c6         1 CPQ      -0.111400
     13 C13         -3.4850    -0.0880    11.2860 c6         1 CPQ       0.148100
     14 C14         -2.7240    -1.2490    10.6730 c6         1 CPQ      -0.072400
     15 C15         -1.2180    -0.9790    10.5820 c6         1 CPQ      -0.048700
     16 C16         -0.4850    -2.1770     9.9770 c6         1 CPQ      -0.068400
     17 C17         -0.7630    -2.3370     8.4870 c6         1 CPQ      -0.071400
     18 C18         -0.4620    -1.0590     7.7100 c6         1 CPQ      -0.042700
     19 C19         -1.1930     0.1510     8.3220 c6         1 CPQ      -0.042700
     20 C20         -0.5600     0.3440     2.7490 c3         1 CPQ      -0.048700
     21 C21         -0.9710     1.8140     2.7780 c3         1 CPQ      -0.087100
     22 C22         -1.1040    -0.3510     1.4930 c3         1 CPQ      -0.069400
     23 C23         -0.5650     0.2400     0.1970 c3         1 CPQ      -0.151400
     24 O2          -4.8580    -0.4320    11.3130 oh         1 CPQ      -0.596800
     25 O4          -2.6590     1.1240     5.8030 oh         1 CPQ      -0.597800
     26 C57         -0.8100    -0.6440    -1.0120 c          1 CPQ       0.667100
     27 N59         -0.2350    -0.2720    -2.1800 n          1 CPQ      -0.487800
     28 C74          0.5550     0.9320    -2.3500 c3         1 CPQ       0.106500
     29 C75          2.0500     0.7030    -2.1590 c3         1 CPQ      -0.122400
     30 C76          2.8260     1.9850    -2.4120 c3         1 CPQ       0.100500
     31 N77          4.2270     1.8040    -2.0890 ns         1 CPQ      -0.552400
     32 C78          5.1580     2.7180    -2.3580 c          1 CPQ       0.633100
     33 C80          6.5790     2.4160    -1.8710 c3         1 CPQ       0.037100
     34 O86          7.3710     3.5430    -2.1130 oh         1 CPQ      -0.589800
     35 C81          7.1530     1.1830    -2.5930 c3         1 CPQ       0.112100
     36 O87          7.4460     1.5080    -3.9290 oh         1 CPQ      -0.580800
     37 C82          8.3470     0.5790    -1.8430 c3         1 CPQ       0.090100
     38 O88          9.3640     1.5140    -1.5660 oh         1 CPQ      -0.579300
     39 C83          8.9130    -0.6580    -2.5630 c3         1 CPQ       0.114600
     40 O89          7.8930    -1.5730    -2.8940 oh         1 CPQ      -0.568300
     41 C84         10.0080    -1.3140    -1.7350 c3         1 CPQ       0.106400
     42 O85         10.5490    -2.3880    -2.4680 oh         1 CPQ      -0.584800
     43 O79          4.9320     3.7650    -2.9540 o          1 CPQ      -0.605600
     44 C68         -0.4450    -1.0850    -3.3660 c3         1 CPQ       0.106500
     45 C69         -1.7290    -0.7230    -4.1030 c3         1 CPQ      -0.122400
     46 C70         -1.8690    -1.5200    -5.3930 c3         1 CPQ       0.100500
     47 N71         -3.0860    -1.1830    -6.1030 ns         1 CPQ      -0.552400
     48 C72         -4.1230    -2.0030    -6.2670 c          1 CPQ       0.633100
     49 C90         -5.3620    -1.4130    -6.9540 c3         1 CPQ       0.037100
     50 O96         -6.3480    -2.4040    -6.9940 oh         1 CPQ      -0.589800
     51 C91         -5.0420    -0.9210    -8.3760 c3         1 CPQ       0.112100
     52 O97         -4.8190    -2.0190    -9.2240 oh         1 CPQ      -0.580800
     53 C92         -6.1120     0.0390    -8.9110 c3         1 CPQ       0.090100
     54 O98         -7.4050    -0.5200    -8.9240 oh         1 CPQ      -0.579300
     55 C93         -5.7370     0.6040   -10.2930 c3         1 CPQ       0.114600
     56 O99         -4.4320     1.1390   -10.2910 oh         1 CPQ      -0.568300
     57 C94         -6.7620     1.6280   -10.7570 c3         1 CPQ       0.106400
     58 O95         -6.4110     2.0680   -12.0480 oh         1 CPQ      -0.584800
     59 O73         -4.1530    -3.1700    -5.8900 o          1 CPQ      -0.605600
     60 O58         -1.5020    -1.6520    -0.9370 o          1 CPQ      -0.591100
     61 H11         -1.5210     2.4130     9.9600 hc         1 CPQ       0.038700
     62 H12         -1.3670     1.6010    11.4920 hc         1 CPQ       0.038700
     63 H31         -1.5250     2.2510     7.8840 hc         1 CPQ       0.041200
     64 H32          0.1060     1.7280     7.5980 hc         1 CPQ       0.041200
     65 H4          -0.9180     2.1920     5.5160 h1         1 CPQ       0.028700
     66 H6          -1.9550    -1.2930     6.2310 hc         1 CPQ       0.064700
     67 H71         -0.7710    -3.2840     5.6730 hc         1 CPQ       0.040700
     68 H72          0.7750    -2.4650     5.6460 hc         1 CPQ       0.040700
     69 H81         -1.2620    -2.5480     3.4890 hc         1 CPQ       0.041700
     70 H82          0.3920    -1.9960     3.3860 hc         1 CPQ       0.041700
     71 H9          -2.1010    -0.4280     4.0010 hc         1 CPQ       0.069700
     72 H101         1.3890     0.5450     6.3400 hc         1 CPQ       0.033033
     73 H102         1.5310    -0.4600     4.9160 hc         1 CPQ       0.033033
     74 H103         1.1690     1.2470     4.7520 hc         1 CPQ       0.033033
     75 H111         0.8140     0.7060    11.1260 hc         1 CPQ       0.032700
     76 H112         1.2840     0.0080     9.5820 hc         1 CPQ       0.032700
     77 H113         0.8110     1.6950     9.6760 hc         1 CPQ       0.032700
     78 H121        -3.6270     1.0930     9.4930 hc         1 CPQ       0.045200
     79 H122        -3.7320     2.0340    10.9730 hc         1 CPQ       0.045200
     80 H13         -3.1130     0.0640    12.3120 h1         1 CPQ       0.024700
     81 H141        -3.1500    -1.4630     9.6880 hc         1 CPQ       0.055200
     82 H142        -2.8790    -2.1480    11.2790 hc         1 CPQ       0.055200
     83 H151        -0.8580    -0.8520    11.6120 hc         1 CPQ       0.042700
     84 H161        -0.7690    -3.0880    10.5120 hc         1 CPQ       0.040200
     85 H162         0.5920    -2.0620    10.1290 hc         1 CPQ       0.040200
     86 H171        -1.8090    -2.6240     8.3260 hc         1 CPQ       0.041700
     87 H172        -0.1650    -3.1630     8.0900 hc         1 CPQ       0.041700
     88 H18          0.6220    -0.8920     7.7620 hc         1 CPQ       0.045700
     89 H19         -2.2630    -0.0710     8.2270 hc         1 CPQ       0.058700
     90 H20          0.5360     0.2940     2.6910 hc         1 CPQ       0.035700
     91 H211        -2.0470     1.9160     2.9380 hc         1 CPQ       0.032033
     92 H212        -0.4650     2.3640     3.5700 hc         1 CPQ       0.032033
     93 H213        -0.7250     2.3220     1.8450 hc         1 CPQ       0.032033
     94 H221        -0.8460    -1.4090     1.5290 hc         1 CPQ       0.059200
     95 H222        -2.1980    -0.3050     1.5000 hc         1 CPQ       0.059200
     96 H231        -1.0170     1.2170     0.0020 hc         1 CPQ       0.054200
     97 H232         0.5080     0.4300     0.3030 hc         1 CPQ       0.054200
     98 HO2         -5.3430     0.3090    11.6910 ho         1 CPQ       0.401000
     99 HO4         -3.1040     1.8250     6.2900 ho         1 CPQ       0.401000
    100 H741         0.3670     1.3150    -3.3560 h1         1 CPQ       0.054700
    101 H742         0.2090     1.7100    -1.6700 h1         1 CPQ       0.054700
    102 H751         2.2360     0.3530    -1.1390 hc         1 CPQ       0.054700
    103 H752         2.4000    -0.0830    -2.8330 hc         1 CPQ       0.054700
    104 H761         2.7300     2.2780    -3.4590 h1         1 CPQ       0.060700
    105 H762         2.4070     2.8000    -1.8120 h1         1 CPQ       0.060700
    106 H771         4.4750     1.0200    -1.5040 hn         1 CPQ       0.314500
    107 H801         6.5240     2.2030    -0.7940 h1         1 CPQ       0.069700
    108 H861         6.7940     4.1810    -2.5650 ho         1 CPQ       0.443000
    109 H811         6.3810     0.4090    -2.6190 h1         1 CPQ       0.078700
    110 H871         7.8680     2.3760    -3.9350 ho         1 CPQ       0.417000
    111 H821         7.9690     0.2620    -0.8620 h1         1 CPQ       0.062700
    112 H881         9.7360     1.8310    -2.3960 ho         1 CPQ       0.411000
    113 H831         9.3440    -0.3370    -3.5180 h1         1 CPQ       0.098200
    114 H891         7.5340    -1.9430    -2.0800 ho         1 CPQ       0.391500
    115 H841        10.7710    -0.5680    -1.4930 h1         1 CPQ       0.026950
    116 H842         9.5760    -1.6520    -0.7790 h1         1 CPQ       0.026950
    117 H851        11.2680    -2.7640    -1.9540 ho         1 CPQ       0.404500
    118 H681        -0.4530    -2.1390    -3.0900 h1         1 CPQ       0.054700
    119 H682         0.4150    -0.9420    -4.0250 h1         1 CPQ       0.054700
    120 H691        -2.5890    -0.9120    -3.4580 hc         1 CPQ       0.054700
    121 H692        -1.7280     0.3470    -4.3340 hc         1 CPQ       0.054700
    122 H701        -1.0160    -1.3300    -6.0480 h1         1 CPQ       0.060700
    123 H702        -1.8800    -2.5880    -5.1850 h1         1 CPQ       0.060700
    124 H711        -3.1760    -0.2270    -6.4130 hn         1 CPQ       0.314500
    125 H901        -5.6900    -0.5550    -6.3500 h1         1 CPQ       0.069700
    126 H961        -5.9630    -3.1760    -6.5450 ho         1 CPQ       0.443000
    127 H911        -4.1100    -0.3500    -8.3430 h1         1 CPQ       0.078700
    128 H971        -5.4660    -2.7000    -8.9990 ho         1 CPQ       0.417000
    129 H921        -6.1610     0.8770    -8.2040 h1         1 CPQ       0.062700
    130 H981        -7.4170    -1.2700    -9.5270 ho         1 CPQ       0.411000
    131 H931        -5.7150    -0.2210   -11.0140 h1         1 CPQ       0.098200
    132 H991        -4.4210     1.9260    -9.7350 ho         1 CPQ       0.391500
    133 H941        -7.7570     1.1730   -10.7430 h1         1 CPQ       0.026950
    134 H942        -6.7840     2.4610   -10.0370 h1         1 CPQ       0.026950
    135 H951        -7.0760     2.7000   -12.3340 ho         1 CPQ       0.404500
@<TRIPOS>BOND
     1     1     2 1   
     2     1    12 1   
     3     1    61 1   
     4     1    62 1   
     5     2    11 1   
     6     2    15 1   
     7     2    19 1   
     8     3     4 1   
     9     3    19 1   
    10     3    63 1   
    11     3    64 1   
    12     4     5 1   
    13     4    25 1   
    14     4    65 1   
    15     5     6 1   
    16     5     9 1   
    17     5    10 1   
    18     6     7 1   
    19     6    18 1   
    20     6    66 1   
    21     7     8 1   
    22     7    67 1   
    23     7    68 1   
    24     8     9 1   
    25     8    69 1   
    26     8    70 1   
    27     9    20 1   
    28     9    71 1   
    29    10    72 1   
    30    10    73 1   
    31    10    74 1   
    32    11    75 1   
    33    11    76 1   
    34    11    77 1   
    35    12    13 1   
    36    12    78 1   
    37    12    79 1   
    38    13    14 1   
    39    13    24 1   
    40    13    80 1   
    41    14    15 1   
    42    14    81 1   
    43    14    82 1   
    44    15    16 1   
    45    15    83 1   
    46    16    17 1   
    47    16    84 1   
    48    16    85 1   
    49    17    18 1   
    50    17    86 1   
    51    17    87 1   
    52    18    19 1   
    53    18    88 1   
    54    19    89 1   
    55    20    21 1   
    56    20    22 1   
    57    20    90 1   
    58    21    91 1   
    59    21    92 1   
    60    21    93 1   
    61    22    23 1   
    62    22    94 1   
    63    22    95 1   
    64    23    26 1   
    65    23    96 1   
    66    23    97 1   
    67    24    98 1   
    68    25    99 1   
    69    26    27 1   
    70    26    60 2   
    71    27    28 1   
    72    27    44 1   
    73    28    29 1   
    74    28   100 1   
    75    28   101 1   
    76    29    30 1   
    77    29   102 1   
    78    29   103 1   
    79    30    31 1   
    80    30   104 1   
    81    30   105 1   
    82    31    32 1   
    83    31   106 1   
    84    32    33 1   
    85    32    43 2   
    86    33    34 1   
    87    33    35 1   
    88    33   107 1   
    89    34   108 1   
    90    35    36 1   
    91    35    37 1   
    92    35   109 1   
    93    36   110 1   
    94    37    38 1   
    95    37    39 1   
    96    37   111 1   
    97    38   112 1   
    98    39    40 1   
    99    39    41 1   
   100    39   113 1   
   101    40   114 1   
   102    41    42 1   
   103    41   115 1   
   104    41   116 1   
   105    42   117 1   
   106    44    45 1   
   107    44   118 1   
   108    44   119 1   
   109    45    46 1   
   110    45   120 1   
   111    45   121 1   
   112    46    47 1   
   113    46   122 1   
   114    46   123 1   
   115    47    48 1   
   116    47   124 1   
   117    48    49 1   
   118    48    59 2   
   119    49    50 1   
   120    49    51 1   
   121    49   125 1   
   122    50   126 1   
   123    51    52 1   
   124    51    53 1   
   125    51   127 1   
   126    52   128 1   
   127    53    54 1   
   128    53    55 1   
   129    53   129 1   
   130    54   130 1   
   131    55    56 1   
   132    55    57 1   
   133    55   131 1   
   134    56   132 1   
   135    57    58 1   
   136    57   133 1   
   137    57   134 1   
   138    58   135 1   
@<TRIPOS>SUBSTRUCTURE
     1 CPQ         1 TEMP              0 ****  ****    0 ROOT
