@<TRIPOS>MOLECULE
CPQ
  135   138     1     0     0
SMALL
No Charge or Current Charge


@<TRIPOS>ATOM
      1 C1          -2.3290     1.7240    10.7110 c6         1 CPQ      -0.067400
      2 C2          -1.3450     0.6190    10.1820 c6         1 CPQ      -0.031000
      3 C3          -1.3020     1.6040     7.7190 c6         1 CPQ      -0.109400
      4 C4          -1.5000     1.3100     6.1960 c6         1 CPQ       0.184300
      5 C5          -0.5840     0.1210     5.7030 c5         1 CPQ      -0.028000
      6 C6          -0.8600    -1.1240     6.6190 c5         1 CPQ      -0.064700
      7 C7          -0.0150    -2.2350     5.9480 c5         1 CPQ      -0.071400
      8 C8          -0.1980    -1.9480     4.4250 c5         1 CPQ      -0.078400
      9 C9          -0.9530    -0.5660     4.3180 c5         1 CPQ      -0.050700
     10 C10          0.9050     0.6340     5.7120 c3         1 CPQ      -0.084100
     11 C11          0.1040     1.1300    10.5100 c3         1 CPQ      -0.085100
     12 C12         -3.8220     1.3170    10.6580 c6         1 CPQ      -0.111400
     13 C13         -4.0590     0.0270    11.4740 c6         1 CPQ       0.171300
     14 C14         -3.1460    -1.1130    10.9670 c6         1 CPQ      -0.072400
     15 C15         -1.6350    -0.7080    10.9880 c6         1 CPQ      -0.048700
     16 C16         -0.7440    -1.8860    10.4950 c6         1 CPQ      -0.068400
     17 C17         -0.8910    -2.1440     8.9760 c6         1 CPQ      -0.071400
     18 C18         -0.6220    -0.8620     8.1380 c6         1 CPQ      -0.042700
     19 C19         -1.5190     0.3380     8.6250 c6         1 CPQ      -0.042700
     20 C20         -0.6540     0.1920     2.9690 c3         1 CPQ      -0.048700
     21 C21         -1.2860     1.6070     2.8880 c3         1 CPQ      -0.087100
     22 C22         -1.0630    -0.6670     1.7280 c3         1 CPQ      -0.069400
     23 C23         -0.6050    -0.1140     0.3500 c3         1 CPQ      -0.151400
     24 O2          -5.4310    -0.3650    11.3810 oh         1 CPQ      -0.659000
     25 O4          -2.8950     1.0720     5.9380 oh         1 CPQ      -0.660000
     26 C57         -0.8040    -1.0670    -0.8510 c          1 CPQ       0.600100
     27 N59         -0.2270    -0.7330    -2.1050 n          1 CPQ      -0.420800
     28 C74          0.5260     0.5260    -2.3340 c3         1 CPQ       0.106500
     29 C75          2.0500     0.3480    -2.1750 c3         1 CPQ      -0.122400
     30 C76          2.8240     1.6610    -2.3900 c3         1 CPQ       0.100500
     31 N77          4.2650     1.4650    -2.2330 ns         1 CPQ      -0.485400
     32 C78          5.2070     2.4490    -2.4490 c          1 CPQ       0.566100
     33 C80          6.6910     2.0320    -2.1950 c3         1 CPQ       0.060300
     34 O86          7.5780     3.1820    -2.0160 oh         1 CPQ      -0.712000
     35 C81          7.2440     1.1360    -3.3430 c3         1 CPQ       0.135300
     36 O87          7.4200     1.9550    -4.5160 oh         1 CPQ      -0.703000
     37 C82          8.5900     0.4410    -2.9420 c3         1 CPQ       0.113300
     38 O88          9.5630     1.4530    -2.6100 oh         1 CPQ      -0.701500
     39 C83          9.1450    -0.5260    -4.0350 c3         1 CPQ       0.137800
     40 O89          8.2090    -1.5870    -4.2970 oh         1 CPQ      -0.690500
     41 C84         10.4890    -1.1950    -3.6390 c3         1 CPQ       0.129600
     42 O85         10.8140    -2.2310    -4.5870 oh         1 CPQ      -0.707000
     43 O79          4.8870     3.5920    -2.7530 o          1 CPQ      -0.605600
     44 C68         -0.3760    -1.6410    -3.2680 c3         1 CPQ       0.106500
     45 C69         -1.5700    -1.2670    -4.1690 c3         1 CPQ      -0.122400
     46 C70         -1.7160    -2.2090    -5.3790 c3         1 CPQ       0.100500
     47 N71         -2.8390    -1.8270    -6.2380 ns         1 CPQ      -0.485400
     48 C72         -4.1660    -2.1120    -5.9900 c          1 CPQ       0.566100
     49 C90         -5.2170    -1.5660    -7.0170 c3         1 CPQ       0.060300
     50 O96         -5.8480    -2.6420    -7.7800 oh         1 CPQ      -0.712000
     51 C91         -4.6630    -0.4760    -7.9930 c3         1 CPQ       0.135300
     52 O97         -3.7020    -1.0710    -8.8910 oh         1 CPQ      -0.703000
     53 C92         -5.8050     0.2200    -8.8070 c3         1 CPQ       0.113300
     54 O98         -6.4810    -0.7750    -9.6020 oh         1 CPQ      -0.701500
     55 C93         -5.3090     1.4010    -9.7010 c3         1 CPQ       0.137800
     56 O99         -4.7120     2.4310    -8.8950 oh         1 CPQ      -0.690500
     57 C94         -6.4460     2.0680   -10.5210 c3         1 CPQ       0.129600
     58 O95         -5.9550     3.2770   -11.1360 oh         1 CPQ      -0.707000
     59 O73         -4.5090    -2.7650    -5.0130 o          1 CPQ      -0.605600
     60 O58         -1.4600    -2.0940    -0.7260 o          1 CPQ      -0.591100
     61 H11         -2.1860     2.6720    10.1780 hc         1 CPQ       0.038700
     62 H12         -2.0810     1.9540    11.7580 hc         1 CPQ       0.038700
     63 H31         -2.0040     2.3990     7.9990 hc         1 CPQ       0.041200
     64 H32         -0.3020     2.0240     7.8780 hc         1 CPQ       0.041200
     65 H4          -1.2010     2.2260     5.6730 h1         1 CPQ       0.028700
     66 H6          -1.9200    -1.4080     6.5610 hc         1 CPQ       0.064700
     67 H71         -0.3670    -3.2370     6.2170 hc         1 CPQ       0.040700
     68 H72          1.0390    -2.1800     6.2430 hc         1 CPQ       0.040700
     69 H81         -0.7720    -2.7470     3.9420 hc         1 CPQ       0.041700
     70 H82          0.7770    -1.9220     3.9240 hc         1 CPQ       0.041700
     71 H9          -2.0300    -0.7750     4.2900 hc         1 CPQ       0.069700
     72 H101         1.2610     0.8750     6.7180 hc         1 CPQ       0.033033
     73 H102         1.6100    -0.0940     5.2970 hc         1 CPQ       0.033033
     74 H103         1.0100     1.5430     5.1090 hc         1 CPQ       0.033033
     75 H111         0.2510     1.2290    11.5930 hc         1 CPQ       0.032700
     76 H112         0.8920     0.4640    10.1470 hc         1 CPQ       0.032700
     77 H113         0.2930     2.1190    10.0790 hc         1 CPQ       0.032700
     78 H121        -4.1470     1.1810     9.6180 hc         1 CPQ       0.045200
     79 H122        -4.4340     2.1320    11.0670 hc         1 CPQ       0.045200
     80 H13         -3.8050     0.2300    12.5250 h1         1 CPQ       0.024700
     81 H141        -3.4660    -1.4070     9.9600 hc         1 CPQ       0.055200
     82 H142        -3.2960    -1.9980    11.6000 hc         1 CPQ       0.055200
     83 H151        -1.3750    -0.5290    12.0410 hc         1 CPQ       0.042700
     84 H161        -0.9990    -2.8020    11.0470 hc         1 CPQ       0.040200
     85 H162         0.3090    -1.6880    10.7320 hc         1 CPQ       0.040200
     86 H171        -1.8920    -2.5380     8.7550 hc         1 CPQ       0.041700
     87 H172        -0.1860    -2.9350     8.6860 hc         1 CPQ       0.041700
     88 H18          0.4350    -0.6020     8.2650 hc         1 CPQ       0.045700
     89 H19         -2.5580     0.0290     8.4570 hc         1 CPQ       0.058700
     90 H20          0.4320     0.3360     2.9020 hc         1 CPQ       0.035700
     91 H211        -2.3690     1.5680     3.0510 hc         1 CPQ       0.032033
     92 H212        -0.8370     2.2800     3.6220 hc         1 CPQ       0.032033
     93 H213        -1.1070     2.0770     1.9160 hc         1 CPQ       0.032033
     94 H221        -0.6300    -1.6690     1.8280 hc         1 CPQ       0.059200
     95 H222        -2.1520    -0.8010     1.7200 hc         1 CPQ       0.059200
     96 H231        -1.1200     0.8180     0.0960 hc         1 CPQ       0.054200
     97 H232         0.4420     0.2030     0.3780 hc         1 CPQ       0.054200
     98 HO2         -5.9600     0.3820    11.7380 ho         1 CPQ       0.440000
     99 HO4         -2.9920     1.0040     4.9660 ho         1 CPQ       0.440000
    100 H741         0.3230     0.8740    -3.3550 h1         1 CPQ       0.054700
    101 H742         0.1720     1.3170    -1.6640 h1         1 CPQ       0.054700
    102 H751         2.2680    -0.0390    -1.1720 hc         1 CPQ       0.054700
    103 H752         2.4040    -0.4010    -2.8930 hc         1 CPQ       0.054700
    104 H761         2.6250     2.0450    -3.4000 h1         1 CPQ       0.060700
    105 H762         2.4870     2.4130    -1.6630 h1         1 CPQ       0.060700
    106 H771         4.6010     0.5510    -1.9510 hn         1 CPQ       0.314500
    107 H801         6.6760     1.4320    -1.2740 h1         1 CPQ       0.069700
    108 H861         7.0100     3.9490    -1.7460 ho         1 CPQ       0.542000
    109 H811         6.5100     0.3430    -3.5460 h1         1 CPQ       0.078700
    110 H871         7.7610     2.8170    -4.1780 ho         1 CPQ       0.516000
    111 H821         8.3870    -0.1660    -2.0480 h1         1 CPQ       0.062700
    112 H881         9.0180     2.2190    -2.2740 ho         1 CPQ       0.510000
    113 H831         9.3220     0.0570    -4.9510 h1         1 CPQ       0.098200
    114 H891         8.7900    -2.3160    -4.6280 ho         1 CPQ       0.490500
    115 H841        11.2810    -0.4330    -3.6180 h1         1 CPQ       0.026950
    116 H842        10.4030    -1.6160    -2.6280 h1         1 CPQ       0.026950
    117 H851        11.7150    -2.5620    -4.3590 ho         1 CPQ       0.503500
    118 H681        -0.4890    -2.6770    -2.9220 h1         1 CPQ       0.054700
    119 H682         0.5440    -1.6050    -3.8650 h1         1 CPQ       0.054700
    120 H691        -2.4890    -1.2940    -3.5720 hc         1 CPQ       0.054700
    121 H692        -1.4480    -0.2380    -4.5280 hc         1 CPQ       0.054700
    122 H701        -0.7960    -2.1830    -5.9780 h1         1 CPQ       0.060700
    123 H702        -1.8630    -3.2410    -5.0310 h1         1 CPQ       0.060700
    124 H711        -2.6450    -1.3460    -7.1130 hn         1 CPQ       0.314500
    125 H901        -5.9760    -1.0720    -6.3940 h1         1 CPQ       0.069700
    126 H961        -6.0460    -3.3770    -7.1450 ho         1 CPQ       0.542000
    127 H911        -4.1770     0.3000    -7.3840 h1         1 CPQ       0.078700
    128 H971        -4.1910    -1.7700    -9.3840 ho         1 CPQ       0.516000
    129 H921        -6.5140     0.6410    -8.0790 h1         1 CPQ       0.062700
    130 H981        -6.4540    -1.6000    -9.0390 ho         1 CPQ       0.510000
    131 H931        -4.5730     1.0050   -10.4150 h1         1 CPQ       0.098200
    132 H991        -4.8380     3.2430    -9.4460 ho         1 CPQ       0.490500
    133 H941        -6.8000     1.3660   -11.2880 h1         1 CPQ       0.026950
    134 H942        -7.2920     2.2940    -9.8570 h1         1 CPQ       0.026950
    135 H951        -6.6730     3.6160   -11.7230 ho         1 CPQ       0.503500
@<TRIPOS>BOND
     1     1     2 1   
     2     1    12 1   
     3     1    61 1   
     4     1    62 1   
     5     2    11 1   
     6     2    15 1   
     7     2    19 1   
     8     3     4 1   
     9     3    19 1   
    10     3    63 1   
    11     3    64 1   
    12     4     5 1   
    13     4    25 1   
    14     4    65 1   
    15     5     6 1   
    16     5     9 1   
    17     5    10 1   
    18     6     7 1   
    19     6    18 1   
    20     6    66 1   
    21     7     8 1   
    22     7    67 1   
    23     7    68 1   
    24     8     9 1   
    25     8    69 1   
    26     8    70 1   
    27     9    20 1   
    28     9    71 1   
    29    10    72 1   
    30    10    73 1   
    31    10    74 1   
    32    11    75 1   
    33    11    76 1   
    34    11    77 1   
    35    12    13 1   
    36    12    78 1   
    37    12    79 1   
    38    13    14 1   
    39    13    24 1   
    40    13    80 1   
    41    14    15 1   
    42    14    81 1   
    43    14    82 1   
    44    15    16 1   
    45    15    83 1   
    46    16    17 1   
    47    16    84 1   
    48    16    85 1   
    49    17    18 1   
    50    17    86 1   
    51    17    87 1   
    52    18    19 1   
    53    18    88 1   
    54    19    89 1   
    55    20    21 1   
    56    20    22 1   
    57    20    90 1   
    58    21    91 1   
    59    21    92 1   
    60    21    93 1   
    61    22    23 1   
    62    22    94 1   
    63    22    95 1   
    64    23    26 1   
    65    23    96 1   
    66    23    97 1   
    67    24    98 1   
    68    25    99 1   
    69    26    27 1   
    70    26    60 2   
    71    27    28 1   
    72    27    44 1   
    73    28    29 1   
    74    28   100 1   
    75    28   101 1   
    76    29    30 1   
    77    29   102 1   
    78    29   103 1   
    79    30    31 1   
    80    30   104 1   
    81    30   105 1   
    82    31    32 1   
    83    31   106 1   
    84    32    33 1   
    85    32    43 2   
    86    33    34 1   
    87    33    35 1   
    88    33   107 1   
    89    34   108 1   
    90    35    36 1   
    91    35    37 1   
    92    35   109 1   
    93    36   110 1   
    94    37    38 1   
    95    37    39 1   
    96    37   111 1   
    97    38   112 1   
    98    39    40 1   
    99    39    41 1   
   100    39   113 1   
   101    40   114 1   
   102    41    42 1   
   103    41   115 1   
   104    41   116 1   
   105    42   117 1   
   106    44    45 1   
   107    44   118 1   
   108    44   119 1   
   109    45    46 1   
   110    45   120 1   
   111    45   121 1   
   112    46    47 1   
   113    46   122 1   
   114    46   123 1   
   115    47    48 1   
   116    47   124 1   
   117    48    49 1   
   118    48    59 2   
   119    49    50 1   
   120    49    51 1   
   121    49   125 1   
   122    50   126 1   
   123    51    52 1   
   124    51    53 1   
   125    51   127 1   
   126    52   128 1   
   127    53    54 1   
   128    53    55 1   
   129    53   129 1   
   130    54   130 1   
   131    55    56 1   
   132    55    57 1   
   133    55   131 1   
   134    56   132 1   
   135    57    58 1   
   136    57   133 1   
   137    57   134 1   
   138    58   135 1   
@<TRIPOS>SUBSTRUCTURE
     1 CPQ         1 TEMP              0 ****  ****    0 ROOT
