@<TRIPOS>MOLECULE
CPS
  100   103     1     0     0
SMALL
bcc


@<TRIPOS>ATOM
      1 C1          -9.4490     1.5180     0.5240 c6         1 CPS      -0.066400
      2 C2          -8.5560     0.3600     1.0080 c6         1 CPS      -0.035000
      3 C3          -6.4030     1.6730     0.5320 c6         1 CPS      -0.109400
      4 C4          -4.9830     1.7020    -0.0420 c6         1 CPS       0.163100
      5 C5          -4.1640     0.5190     0.4860 c5         1 CPS      -0.032000
      6 C6          -4.9270    -0.7780     0.1550 c5         1 CPS      -0.059700
      7 C7          -3.9370    -1.8810     0.5070 c5         1 CPS      -0.070400
      8 C8          -2.5650    -1.2750     0.1510 c5         1 CPS      -0.077400
      9 C9          -2.7950     0.2220    -0.1890 c5         1 CPS      -0.050700
     10 C10         -3.9520     0.7010     1.9940 c3         1 CPS      -0.085100
     11 C11         -8.4420     0.5230     2.5310 c3         1 CPS      -0.088100
     12 C12         -9.8940     1.4140    -0.9270 c6         1 CPS      -0.111400
     13 C13        -10.6580     0.1140    -1.1340 c6         1 CPS       0.149100
     14 C14         -9.7730    -1.0600    -0.7620 c6         1 CPS      -0.075400
     15 C15         -9.2780    -0.9720     0.6880 c6         1 CPS      -0.042700
     16 C16         -8.4270    -2.1790     1.0850 c6         1 CPS      -0.105400
     17 C17         -7.0100    -2.1800     0.5170 c6         1 CPS       0.155100
     18 C18         -6.3120    -0.8480     0.7820 c6         1 CPS      -0.034700
     19 C19         -7.1600     0.3570     0.3280 c6         1 CPS      -0.038700
     20 C20         -1.5950     1.1010     0.1920 c3         1 CPS      -0.046700
     21 C21         -1.8160     2.5760    -0.1380 c3         1 CPS      -0.088100
     22 C22         -0.3150     0.5990    -0.4920 c3         1 CPS      -0.069400
     23 C23          0.9570     1.1790     0.1320 c3         1 CPS      -0.157400
     24 C24          2.1980     0.6760    -0.5680 c          1 CPS       0.666100
     25 C25          4.1660    -0.7800    -0.3560 c3         1 CPS       0.105000
     26 C26          5.3690     0.0180     0.1520 c3         1 CPS      -0.129400
     27 C27          6.6420    -0.5920    -0.4050 c3         1 CPS       0.125800
     28 C28          7.9470     1.4670    -0.0900 c3         1 CPS       0.105100
     29 C29          8.0840    -0.3080     1.5660 c3         1 CPS       0.105100
     30 C30          9.0400    -0.6640    -0.6680 c3         1 CPS       0.127800
     31 C31         10.4500    -0.2690    -0.2650 c3         1 CPS      -0.053400
     32 C32         11.4410    -1.0460    -1.1180 c3         1 CPS      -0.252600
     33 N1           2.9210    -0.2290     0.1180 ns         1 CPS      -0.579900
     34 N2           7.9310    -0.0070     0.1160 n4         1 CPS      -0.611800
     35 O1           2.4990     1.0480    -1.6950 o          1 CPS      -0.594100
     36 O2         -11.0820    -0.0620    -2.4720 oh         1 CPS      -0.595800
     37 O3          -6.9760    -2.4420    -0.8750 oh         1 CPS      -0.593800
     38 O4          -4.9950     1.6630    -1.4550 oh         1 CPS      -0.594800
     39 O2S         13.2870    -1.0360     0.7400 o          1 CPS      -0.674200
     40 O3S         13.9720    -1.4920    -1.5830 o          1 CPS      -0.674200
     41 O1S         13.3050     0.7860    -0.9140 o          1 CPS      -0.674200
     42 S           13.1490    -0.6630    -0.6810 s6         1 CPS       1.199800
     43 H1         -10.3470     1.5230     1.1540 hc         1 CPS       0.039200
     44 H1A         -8.9620     2.4780     0.7070 hc         1 CPS       0.039200
     45 H3          -6.3490     1.9160     1.5960 hc         1 CPS       0.041200
     46 H3A         -6.9610     2.4990     0.0800 hc         1 CPS       0.041200
     47 H4          -4.5280     2.6420     0.2990 h1         1 CPS       0.026700
     48 H6          -5.0510    -0.7900    -0.9340 hc         1 CPS       0.084700
     49 H7          -3.9910    -2.1270     1.5710 hc         1 CPS       0.041200
     50 H7A         -4.1410    -2.8040    -0.0370 hc         1 CPS       0.041200
     51 H8          -1.8690    -1.3740     0.9890 hc         1 CPS       0.035200
     52 H8A         -2.1050    -1.8000    -0.6880 hc         1 CPS       0.035200
     53 H9          -2.9360     0.3070    -1.2720 hc         1 CPS       0.072700
     54 H10         -4.8730     0.6390     2.5720 hc         1 CPS       0.032700
     55 H10A        -3.2720    -0.0470     2.4030 hc         1 CPS       0.032700
     56 H10B        -3.5150     1.6790     2.2070 hc         1 CPS       0.032700
     57 H11         -9.4120     0.3380     2.9970 hc         1 CPS       0.032700
     58 H11A        -7.7280    -0.1560     2.9950 hc         1 CPS       0.032700
     59 H11B        -8.1450     1.5380     2.8020 hc         1 CPS       0.032700
     60 H12        -10.5290     2.2710    -1.1760 hc         1 CPS       0.046700
     61 H12A        -9.0380     1.4450    -1.6080 hc         1 CPS       0.046700
     62 H13        -11.5280     0.1240    -0.4570 h1         1 CPS       0.023700
     63 H14        -10.3300    -1.9960    -0.8800 hc         1 CPS       0.060200
     64 H14A        -8.9380    -1.0990    -1.4640 hc         1 CPS       0.060200
     65 H15        -10.1770    -0.9920     1.3200 hc         1 CPS       0.041700
     66 H16         -8.3460    -2.2210     2.1760 hc         1 CPS       0.043700
     67 H16A        -8.9380    -3.1050     0.7990 hc         1 CPS       0.043700
     68 H17         -6.4450    -2.9630     1.0450 h1         1 CPS       0.026700
     69 H18         -6.1820    -0.8020     1.8690 hc         1 CPS       0.044700
     70 H19         -7.3160     0.2410    -0.7500 hc         1 CPS       0.072700
     71 H20         -1.4400     1.0040     1.2740 hc         1 CPS       0.037700
     72 H21         -2.5610     3.0380     0.5070 hc         1 CPS       0.035367
     73 H21A        -0.9030     3.1600    -0.0200 hc         1 CPS       0.035367
     74 H21B        -2.1530     2.6980    -1.1700 hc         1 CPS       0.035367
     75 H22         -0.2540    -0.4890    -0.4210 hc         1 CPS       0.054200
     76 H22A        -0.3520     0.8380    -1.5600 hc         1 CPS       0.054200
     77 H23          0.9650     2.2680     0.0570 hc         1 CPS       0.060200
     78 H23A         0.9760     0.9340     1.1970 hc         1 CPS       0.060200
     79 H25          4.1510    -0.7960    -1.4450 h1         1 CPS       0.066700
     80 H25A         4.2370    -1.8150    -0.0190 h1         1 CPS       0.066700
     81 H261         5.2580     1.0550    -0.1660 hc         1 CPS       0.065700
     82 H271         6.6850    -1.6590    -0.1850 hx         1 CPS       0.090700
     83 H28          7.1790     1.9260     0.5240 hx         1 CPS       0.093033
     84 H28A         8.9120     1.8670     0.2040 hx         1 CPS       0.093033
     85 H28B         7.7610     1.6840    -1.1390 hx         1 CPS       0.093033
     86 H29          8.1440    -1.3850     1.7000 hx         1 CPS       0.093033
     87 H29A         8.9850     0.1630     1.9430 hx         1 CPS       0.093033
     88 H29B         7.2320     0.0840     2.1110 hx         1 CPS       0.093033
     89 H30          8.8590    -0.4180    -1.7150 hx         1 CPS       0.083200
     90 H30A         8.9000    -1.7380    -0.5450 hx         1 CPS       0.083200
     91 H31         10.6150     0.7980    -0.4120 hc         1 CPS       0.072200
     92 H31A        10.6330    -0.4990     0.7840 hc         1 CPS       0.072200
     93 H32         11.3110    -2.1230    -0.9900 h1         1 CPS       0.077700
     94 H32A        11.3180    -0.8170    -2.1780 h1         1 CPS       0.077700
     95 HN1          2.6400    -0.4580     1.0570 hn         1 CPS       0.317500
     96 HO2        -11.6520     0.6780    -2.7040 ho         1 CPS       0.402000
     97 HO3         -7.5130    -3.2230    -1.0420 ho         1 CPS       0.401000
     98 HO4         -5.5990     2.3440    -1.7640 ho         1 CPS       0.402000
     99 H272         6.6700    -0.4750    -1.4890 hx         1 CPS       0.090700
    100 H262         5.3570    -0.0000     1.2430 hc         1 CPS       0.065700
@<TRIPOS>BOND
     1     1     2 1   
     2     1    12 1   
     3     1    43 1   
     4     1    44 1   
     5     2    11 1   
     6     2    15 1   
     7     2    19 1   
     8     3     4 1   
     9     3    19 1   
    10     3    45 1   
    11     3    46 1   
    12     4     5 1   
    13     4    38 1   
    14     4    47 1   
    15     5     6 1   
    16     5     9 1   
    17     5    10 1   
    18     6     7 1   
    19     6    18 1   
    20     6    48 1   
    21     7     8 1   
    22     7    49 1   
    23     7    50 1   
    24     8     9 1   
    25     8    51 1   
    26     8    52 1   
    27     9    20 1   
    28     9    53 1   
    29    10    54 1   
    30    10    55 1   
    31    10    56 1   
    32    11    57 1   
    33    11    58 1   
    34    11    59 1   
    35    12    13 1   
    36    12    60 1   
    37    12    61 1   
    38    13    14 1   
    39    13    36 1   
    40    13    62 1   
    41    14    15 1   
    42    14    63 1   
    43    14    64 1   
    44    15    16 1   
    45    15    65 1   
    46    16    17 1   
    47    16    66 1   
    48    16    67 1   
    49    17    18 1   
    50    17    37 1   
    51    17    68 1   
    52    18    19 1   
    53    18    69 1   
    54    19    70 1   
    55    20    21 1   
    56    20    22 1   
    57    20    71 1   
    58    21    72 1   
    59    21    73 1   
    60    21    74 1   
    61    22    23 1   
    62    22    75 1   
    63    22    76 1   
    64    23    24 1   
    65    23    77 1   
    66    23    78 1   
    67    24    33 1   
    68    24    35 2   
    69    25    26 1   
    70    25    33 1   
    71    25    79 1   
    72    25    80 1   
    73    26    27 1   
    74    26    81 1   
    75    26   100 1   
    76    27    34 1   
    77    27    82 1   
    78    27    99 1   
    79    28    34 1   
    80    28    83 1   
    81    28    84 1   
    82    28    85 1   
    83    29    34 1   
    84    29    86 1   
    85    29    87 1   
    86    29    88 1   
    87    30    31 1   
    88    30    34 1   
    89    30    89 1   
    90    30    90 1   
    91    31    32 1   
    92    31    91 1   
    93    31    92 1   
    94    32    42 1   
    95    32    93 1   
    96    32    94 1   
    97    33    95 1   
    98    36    96 1   
    99    37    97 1   
   100    38    98 1   
   101    39    42 1   
   102    40    42 1   
   103    41    42 1   
@<TRIPOS>SUBSTRUCTURE
     1 CPS         1 TEMP              0 ****  ****    0 ROOT
