@<TRIPOS>MOLECULE
CPS
  100   103     1     0     0
SMALL
No Charge or Current Charge


@<TRIPOS>ATOM
      1 C1          -9.6530     1.4990     0.4040 c6         1 CPS      -0.066400
      2 C2          -8.7970     0.2570     0.8500 c6         1 CPS      -0.035000
      3 C3          -6.5470     1.6530     0.8750 c6         1 CPS      -0.109400
      4 C4          -5.0480     1.7310     0.4430 c6         1 CPS       0.186300
      5 C5          -4.2400     0.4560     0.9040 c5         1 CPS      -0.032000
      6 C6          -4.9680    -0.8130     0.3340 c5         1 CPS      -0.059700
      7 C7          -4.0080    -1.9600     0.7410 c5         1 CPS      -0.070400
      8 C8          -2.5960    -1.3360     0.5170 c5         1 CPS      -0.077400
      9 C9          -2.8270     0.1970     0.2230 c5         1 CPS      -0.050700
     10 C10         -4.1190     0.5070     2.4730 c3         1 CPS      -0.085100
     11 C11         -8.9120     0.2020     2.4180 c3         1 CPS      -0.088100
     12 C12         -9.8560     1.6110    -1.1260 c6         1 CPS      -0.111400
     13 C13        -10.5440     0.3400    -1.6660 c6         1 CPS       0.172300
     14 C14         -9.7070    -0.9090    -1.3130 c6         1 CPS      -0.075400
     15 C15         -9.4540    -1.0350     0.2280 c6         1 CPS      -0.042700
     16 C16         -8.6440    -2.3240     0.5820 c6         1 CPS      -0.105400
     17 C17         -7.1320    -2.2550     0.2230 c6         1 CPS       0.178300
     18 C18         -6.4650    -0.9460     0.7680 c6         1 CPS      -0.034700
     19 C19         -7.2780     0.3510     0.3780 c6         1 CPS      -0.038700
     20 C20         -1.5930     1.0900     0.6270 c3         1 CPS      -0.046700
     21 C21         -1.8360     2.6140     0.4630 c3         1 CPS      -0.088100
     22 C22         -0.2990     0.6530    -0.1340 c3         1 CPS      -0.069400
     23 C23          1.0180     1.3260     0.3370 c3         1 CPS      -0.157400
     24 C24          2.2450     0.6360    -0.2680 c          1 CPS       0.599100
     25 C25          4.2010    -0.8580     0.2710 c3         1 CPS       0.105000
     26 C26          5.4250     0.0750     0.2390 c3         1 CPS      -0.129400
     27 C27          6.7250    -0.6830    -0.1030 c3         1 CPS       0.097600
     28 C28          7.9150     1.2110    -1.2590 c3         1 CPS       0.076900
     29 C29          8.3090     0.7880     1.1870 c3         1 CPS       0.076900
     30 C30          9.1680    -0.8460    -0.5250 c3         1 CPS       0.099600
     31 C31         10.5980    -0.2800    -0.6570 c3         1 CPS      -0.053400
     32 C32         11.6270    -1.3820    -1.0140 c3         1 CPS      -0.363400
     33 N1           2.9720    -0.1360     0.6110 ns         1 CPS      -0.512900
     34 N2           8.0300     0.1270    -0.1740 n4         1 CPS      -0.499000
     35 O1           2.5700     0.7790    -1.4370 o          1 CPS      -0.594100
     36 O2         -10.7090     0.4370    -3.0830 oh         1 CPS      -0.658000
     37 O3          -6.9400    -2.4250    -1.1880 oh         1 CPS      -0.656000
     38 O4          -4.9760     1.9440    -0.9770 oh         1 CPS      -0.657000
     39 O2S         13.6270    -0.2100     0.1400 o          1 CPS      -0.674200
     40 O3S         14.0860    -1.9900    -1.5140 o          1 CPS      -0.674200
     41 O1S         13.2400     0.2070    -2.2690 o          1 CPS      -0.674200
     42 S           13.3250    -0.7780    -1.1820 s6         1 CPS       1.310600
     43 H1         -10.6480     1.4340     0.8680 hc         1 CPS       0.039200
     44 H1A         -9.2290     2.4340     0.7910 hc         1 CPS       0.039200
     45 H3          -6.6100     1.7400     1.9650 hc         1 CPS       0.041200
     46 H3A         -7.0510     2.5430     0.4800 hc         1 CPS       0.041200
     47 H4          -4.6360     2.6120     0.9480 h1         1 CPS       0.026700
     48 H6          -5.0080    -0.7550    -0.7610 hc         1 CPS       0.084700
     49 H7          -4.1530    -2.2630     1.7840 hc         1 CPS       0.041200
     50 H7A         -4.1590    -2.8560     0.1290 hc         1 CPS       0.041200
     51 H8          -1.9670    -1.4940     1.4010 hc         1 CPS       0.035200
     52 H8A         -2.0810    -1.8230    -0.3200 hc         1 CPS       0.035200
     53 H9          -2.9170     0.3190    -0.8630 hc         1 CPS       0.072700
     54 H10         -5.0880     0.4160     2.9750 hc         1 CPS       0.032700
     55 H10A        -3.4820    -0.2860     2.8800 hc         1 CPS       0.032700
     56 H10B        -3.6780     1.4550     2.8020 hc         1 CPS       0.032700
     57 H11         -9.9540     0.0570     2.7300 hc         1 CPS       0.032700
     58 H11A        -8.3390    -0.6110     2.8720 hc         1 CPS       0.032700
     59 H11B        -8.5770     1.1350     2.8850 hc         1 CPS       0.032700
     60 H12        -10.4750     2.4920    -1.3450 hc         1 CPS       0.046700
     61 H12A        -8.8940     1.7760    -1.6300 hc         1 CPS       0.046700
     62 H13        -11.5300     0.2440    -1.1860 h1         1 CPS       0.023700
     63 H14        -10.2270    -1.8060    -1.6740 hc         1 CPS       0.060200
     64 H14A        -8.7660    -0.8580    -1.8710 hc         1 CPS       0.060200
     65 H15        -10.4470    -1.1560     0.6860 hc         1 CPS       0.041700
     66 H16         -8.7360    -2.5240     1.6570 hc         1 CPS       0.043700
     67 H16A        -9.1020    -3.1970     0.0960 hc         1 CPS       0.043700
     68 H17         -6.6470    -3.1000     0.7320 h1         1 CPS       0.026700
     69 H18         -6.4580    -1.0370     1.8600 hc         1 CPS       0.044700
     70 H19         -7.2660     0.4020    -0.7180 hc         1 CPS       0.072700
     71 H20         -1.3960     0.9230     1.6930 hc         1 CPS       0.037700
     72 H21         -2.5950     2.9680     1.1650 hc         1 CPS       0.035367
     73 H21A        -0.9360     3.1940     0.6920 hc         1 CPS       0.035367
     74 H21B        -2.1470     2.8590    -0.5590 hc         1 CPS       0.035367
     75 H22         -0.1630    -0.4290    -0.0190 hc         1 CPS       0.054200
     76 H22A        -0.4310     0.8310    -1.2090 hc         1 CPS       0.054200
     77 H23          1.0260     2.3710     0.0100 hc         1 CPS       0.060200
     78 H23A         1.0650     1.2740     1.4310 hc         1 CPS       0.060200
     79 H25          4.0760    -1.3410    -0.7080 h1         1 CPS       0.066700
     80 H25A         4.3610    -1.6480     1.0180 h1         1 CPS       0.066700
     81 H261         5.2550     0.8650    -0.5010 hc         1 CPS       0.065700
     82 H271         6.8720    -1.4680     0.6420 hx         1 CPS       0.090700
     83 H28          7.0970     1.8880    -1.0080 hx         1 CPS       0.093033
     84 H28A         8.8480     1.7730    -1.3090 hx         1 CPS       0.093033
     85 H28B         7.7170     0.7350    -2.2220 hx         1 CPS       0.093033
     86 H29          8.3910     0.0140     1.9530 hx         1 CPS       0.093033
     87 H29A         9.2420     1.3520     1.1310 hx         1 CPS       0.093033
     88 H29B         7.4900     1.4670     1.4340 hx         1 CPS       0.093033
     89 H30          8.9020    -1.3240    -1.4710 hx         1 CPS       0.083200
     90 H30A         9.1790    -1.6210     0.2450 hx         1 CPS       0.083200
     91 H31         10.6110     0.4960    -1.4320 hc         1 CPS       0.072200
     92 H31A        10.8870     0.1990     0.2850 hc         1 CPS       0.072200
     93 H32         11.6540    -2.1500    -0.2330 h1         1 CPS       0.077700
     94 H32A        11.3750    -1.8490    -1.9720 h1         1 CPS       0.077700
     95 HN1          2.6250    -0.1920     1.5620 hn         1 CPS       0.317500
     96 HO2        -11.2680     1.2270    -3.2450 ho         1 CPS       0.441000
     97 HO3         -7.3270    -3.2960    -1.4200 ho         1 CPS       0.440000
     98 HO4         -4.0380     2.1340    -1.1860 ho         1 CPS       0.441000
     99 H272         6.5940    -1.1680    -1.0740 hx         1 CPS       0.090700
    100 H262         5.5270     0.5600     1.2170 hc         1 CPS       0.065700
@<TRIPOS>BOND
     1     1     2 1   
     2     1    12 1   
     3     1    43 1   
     4     1    44 1   
     5     2    11 1   
     6     2    15 1   
     7     2    19 1   
     8     3     4 1   
     9     3    19 1   
    10     3    45 1   
    11     3    46 1   
    12     4     5 1   
    13     4    38 1   
    14     4    47 1   
    15     5     6 1   
    16     5     9 1   
    17     5    10 1   
    18     6     7 1   
    19     6    18 1   
    20     6    48 1   
    21     7     8 1   
    22     7    49 1   
    23     7    50 1   
    24     8     9 1   
    25     8    51 1   
    26     8    52 1   
    27     9    20 1   
    28     9    53 1   
    29    10    54 1   
    30    10    55 1   
    31    10    56 1   
    32    11    57 1   
    33    11    58 1   
    34    11    59 1   
    35    12    13 1   
    36    12    60 1   
    37    12    61 1   
    38    13    14 1   
    39    13    36 1   
    40    13    62 1   
    41    14    15 1   
    42    14    63 1   
    43    14    64 1   
    44    15    16 1   
    45    15    65 1   
    46    16    17 1   
    47    16    66 1   
    48    16    67 1   
    49    17    18 1   
    50    17    37 1   
    51    17    68 1   
    52    18    19 1   
    53    18    69 1   
    54    19    70 1   
    55    20    21 1   
    56    20    22 1   
    57    20    71 1   
    58    21    72 1   
    59    21    73 1   
    60    21    74 1   
    61    22    23 1   
    62    22    75 1   
    63    22    76 1   
    64    23    24 1   
    65    23    77 1   
    66    23    78 1   
    67    24    33 1   
    68    24    35 2   
    69    25    26 1   
    70    25    33 1   
    71    25    79 1   
    72    25    80 1   
    73    26    27 1   
    74    26    81 1   
    75    26   100 1   
    76    27    34 1   
    77    27    82 1   
    78    27    99 1   
    79    28    34 1   
    80    28    83 1   
    81    28    84 1   
    82    28    85 1   
    83    29    34 1   
    84    29    86 1   
    85    29    87 1   
    86    29    88 1   
    87    30    31 1   
    88    30    34 1   
    89    30    89 1   
    90    30    90 1   
    91    31    32 1   
    92    31    91 1   
    93    31    92 1   
    94    32    42 1   
    95    32    93 1   
    96    32    94 1   
    97    33    95 1   
    98    36    96 1   
    99    37    97 1   
   100    38    98 1   
   101    39    42 1   
   102    40    42 1   
   103    41    42 1   
@<TRIPOS>SUBSTRUCTURE
     1 CPS         1 TEMP              0 ****  ****    0 ROOT
