@<TRIPOS>MOLECULE
CPU
   43    44     1     0     0
SMALL
No Charge or Current Charge


@<TRIPOS>ATOM
      1 C1           0.9990     0.5680     5.3010 ca         1 CPU      -0.107000
      2 C2           1.4030    -0.1200     6.4590 ca         1 CPU      -0.109500
      3 C3           0.5960    -1.1420     6.9870 ca         1 CPU      -0.111000
      4 C4          -0.6140    -1.4760     6.3560 ca         1 CPU      -0.109500
      5 C5          -1.0170    -0.7880     5.1980 ca         1 CPU      -0.107000
      6 C6          -0.2140     0.2390     4.6650 ca         1 CPU      -0.080300
      7 N1          -0.0360     0.3750    -0.3570 ns         1 CPU      -0.521900
      8 C7          -0.6480     0.9800     3.4080 c3         1 CPU      -0.029100
      9 C8          -0.1220     0.3040     2.1250 c3         1 CPU      -0.092400
     10 C9          -0.5500     1.0380     0.8400 c3         1 CPU       0.111000
     11 C10         -0.2740     0.8060    -1.6310 c          1 CPU       0.649100
     12 O1          -0.9370     1.7930    -1.8970 o          1 CPU      -0.643100
     13 N2           0.3180     0.0110    -2.5730 ns         1 CPU      -0.516900
     14 C11          0.2280     0.2040    -4.0250 c6         1 CPU       0.119700
     15 C12          1.4430    -0.4590    -4.7250 c6         1 CPU      -0.091900
     16 C13          1.3620    -0.3040    -6.2650 c6         1 CPU      -0.070900
     17 C14          0.0380    -0.8860    -6.8160 c6         1 CPU      -0.077400
     18 C15         -1.1860    -0.2500    -6.1140 c6         1 CPU      -0.070900
     19 C16         -1.0900    -0.4040    -4.5750 c6         1 CPU      -0.091900
     20 H1           1.6310     1.3560     4.8970 ha         1 CPU       0.110500
     21 H2           2.3410     0.1390     6.9460 ha         1 CPU       0.111500
     22 H3           0.9090    -1.6750     7.8830 ha         1 CPU       0.112000
     23 H4          -1.2390    -2.2690     6.7630 ha         1 CPU       0.111500
     24 H5          -1.9540    -1.0550     4.7140 ha         1 CPU       0.110500
     25 HN1          0.5290    -0.4570    -0.2440 hn         1 CPU       0.297500
     26 H72         -0.2920     2.0180     3.4410 hc         1 CPU       0.049200
     27 H71         -1.7430     1.0360     3.3630 hc         1 CPU       0.049200
     28 H82         -0.4870    -0.7300     2.0880 hc         1 CPU       0.047700
     29 H81          0.9740     0.2580     2.1670 hc         1 CPU       0.047700
     30 H92         -0.1730     2.0700     0.8620 h1         1 CPU       0.050700
     31 H91         -1.6460     1.0730     0.7840 h1         1 CPU       0.050700
     32 HN2          0.8470    -0.7800    -2.2330 hn         1 CPU       0.295500
     33 H11          0.2420     1.2840    -4.2370 h1         1 CPU       0.083700
     34 H121         2.3750    -0.0070    -4.3590 hc         1 CPU       0.042950
     35 H122         1.4900    -1.5260    -4.4660 hc         1 CPU       0.042950
     36 H131         1.4410     0.7590    -6.5350 hc         1 CPU       0.042450
     37 H132         2.2170    -0.8090    -6.7360 hc         1 CPU       0.042450
     38 H141        -0.0220    -0.7150    -7.9000 hc         1 CPU       0.039200
     39 H142         0.0240    -1.9750    -6.6700 hc         1 CPU       0.039200
     40 H151        -1.2520     0.8150    -6.3760 hc         1 CPU       0.042450
     41 H152        -2.1100    -0.7190    -6.4790 hc         1 CPU       0.042450
     42 H161        -1.1520    -1.4680    -4.3070 hc         1 CPU       0.042950
     43 H162        -1.9530     0.0860    -4.1050 hc         1 CPU       0.042950
@<TRIPOS>BOND
     1     1     2 ar  
     2     1     6 ar  
     3     1    20 1   
     4     2     3 ar  
     5     2    21 1   
     6     3     4 ar  
     7     3    22 1   
     8     4     5 ar  
     9     4    23 1   
    10     5     6 ar  
    11     5    24 1   
    12     6     8 1   
    13     7    10 1   
    14     7    11 1   
    15     7    25 1   
    16     8     9 1   
    17     8    26 1   
    18     8    27 1   
    19     9    10 1   
    20     9    28 1   
    21     9    29 1   
    22    10    30 1   
    23    10    31 1   
    24    11    12 2   
    25    11    13 1   
    26    13    14 1   
    27    13    32 1   
    28    14    15 1   
    29    14    19 1   
    30    14    33 1   
    31    15    16 1   
    32    15    34 1   
    33    15    35 1   
    34    16    17 1   
    35    16    36 1   
    36    16    37 1   
    37    17    18 1   
    38    17    38 1   
    39    17    39 1   
    40    18    19 1   
    41    18    40 1   
    42    18    41 1   
    43    19    42 1   
    44    19    43 1   
@<TRIPOS>SUBSTRUCTURE
     1 CPU         1 TEMP              0 ****  ****    0 ROOT
