@<TRIPOS>MOLECULE
CPU
   43    44     1     0     0
SMALL
bcc


@<TRIPOS>ATOM
      1 C1           0.8900     0.8000     5.1790 ca         1 CPU      -0.125000
      2 C2           1.4240     0.2670     6.3450 ca         1 CPU      -0.127500
      3 C3           0.8050    -0.8110     6.9660 ca         1 CPU      -0.129000
      4 C4          -0.3500    -1.3470     6.4130 ca         1 CPU      -0.127500
      5 C5          -0.8800    -0.8100     5.2470 ca         1 CPU      -0.125000
      6 C6          -0.2680     0.2710     4.6150 ca         1 CPU      -0.080300
      7 N1          -0.1760    -0.0030    -0.3270 ns         1 CPU      -0.588900
      8 C7          -0.8140     0.8180     3.3260 c3         1 CPU      -0.029100
      9 C8          -0.1840     0.1420     2.1090 c3         1 CPU      -0.092400
     10 C9          -0.7440     0.6910     0.8060 c3         1 CPU       0.111000
     11 C10         -0.1030     0.5550    -1.5670 c          1 CPU       0.783100
     12 O1          -0.3510     1.7400    -1.7730 o          1 CPU      -0.643100
     13 N2           0.3200    -0.2890    -2.5460 ns         1 CPU      -0.583900
     14 C11          0.3100     0.0730    -3.9490 c6         1 CPU       0.119700
     15 C12          1.3950    -0.7080    -4.6860 c6         1 CPU      -0.091900
     16 C13          1.4100    -0.3730    -6.1750 c6         1 CPU      -0.070900
     17 C14          0.0450    -0.6000    -6.8160 c6         1 CPU      -0.077400
     18 C15         -1.0380     0.1850    -6.0840 c6         1 CPU      -0.070900
     19 C16         -1.0570    -0.1530    -4.5970 c6         1 CPU      -0.091900
     20 H1           1.3810     1.6410     4.7020 ha         1 CPU       0.128500
     21 H2           2.3240     0.6950     6.7700 ha         1 CPU       0.129500
     22 H3           1.2190    -1.2270     7.8760 ha         1 CPU       0.130000
     23 H4          -0.8430    -2.1840     6.8920 ha         1 CPU       0.129500
     24 H5          -1.7830    -1.2350     4.8230 ha         1 CPU       0.128500
     25 HN1         -0.1220    -1.0070    -0.2510 hn         1 CPU       0.297500
     26 H72         -0.6340     1.8960     3.2730 hc         1 CPU       0.049200
     27 H71         -1.8980     0.6800     3.2930 hc         1 CPU       0.049200
     28 H82         -0.3630    -0.9370     2.1660 hc         1 CPU       0.047700
     29 H81          0.9010     0.2810     2.1290 hc         1 CPU       0.047700
     30 H92         -0.5070     1.7510     0.7220 h1         1 CPU       0.050700
     31 H91         -1.8380     0.6090     0.8150 h1         1 CPU       0.050700
     32 HN2          0.3610    -1.2770    -2.3440 hn         1 CPU       0.295500
     33 H11          0.5520     1.1370    -4.0130 h1         1 CPU       0.083700
     34 H121         2.3690    -0.4940    -4.2390 hc         1 CPU       0.042950
     35 H122         1.2160    -1.7820    -4.5590 hc         1 CPU       0.042950
     36 H131         1.7020     0.6740    -6.3070 hc         1 CPU       0.042450
     37 H132         2.1730    -0.9710    -6.6780 hc         1 CPU       0.042450
     38 H141         0.0730    -0.3170    -7.8710 hc         1 CPU       0.039200
     39 H142        -0.1970    -1.6680    -6.7870 hc         1 CPU       0.039200
     40 H151        -0.8560     1.2580    -6.2100 hc         1 CPU       0.042450
     41 H152        -2.0180    -0.0150    -6.5230 hc         1 CPU       0.042450
     42 H161        -1.3410    -1.2040    -4.4620 hc         1 CPU       0.042950
     43 H162        -1.8110     0.4450    -4.0800 hc         1 CPU       0.042950
@<TRIPOS>BOND
     1     1     2 ar  
     2     1     6 ar  
     3     1    20 1   
     4     2     3 ar  
     5     2    21 1   
     6     3     4 ar  
     7     3    22 1   
     8     4     5 ar  
     9     4    23 1   
    10     5     6 ar  
    11     5    24 1   
    12     6     8 1   
    13     7    10 1   
    14     7    11 1   
    15     7    25 1   
    16     8     9 1   
    17     8    26 1   
    18     8    27 1   
    19     9    10 1   
    20     9    28 1   
    21     9    29 1   
    22    10    30 1   
    23    10    31 1   
    24    11    12 2   
    25    11    13 1   
    26    13    14 1   
    27    13    32 1   
    28    14    15 1   
    29    14    19 1   
    30    14    33 1   
    31    15    16 1   
    32    15    34 1   
    33    15    35 1   
    34    16    17 1   
    35    16    36 1   
    36    16    37 1   
    37    17    18 1   
    38    17    38 1   
    39    17    39 1   
    40    18    19 1   
    41    18    40 1   
    42    18    41 1   
    43    19    42 1   
    44    19    43 1   
@<TRIPOS>SUBSTRUCTURE
     1 CPU         1 TEMP              0 ****  ****    0 ROOT
