@<TRIPOS>MOLECULE
CPV
   47    47     1     0     0
SMALL
abcg2


@<TRIPOS>ATOM
      1 C           -3.2990     1.1390    -0.8950 c          1 CPV       0.716000
      2 N            0.8710    -1.9780    -0.0160 n8         1 CPV      -1.024200
      3 O           -3.0320     2.1050    -0.1450 o          1 CPV      -0.739500
      4 CA           0.7280    -0.5230     0.0050 c3         1 CPV       0.123500
      5 CB           1.8610     0.1460    -0.7710 c3         1 CPV      -0.078400
      6 CG           3.2840    -0.1750    -0.3120 c6         1 CPV      -0.062700
      7 CH          -0.6370    -0.1920    -0.6350 c3         1 CPV       0.176300
      8 OH          -0.7640    -0.9090    -1.8440 oh         1 CPV      -0.647000
      9 CZ           5.9530     0.5870     0.7340 c6         1 CPV      -0.072400
     10 C1          -3.1840    -0.2630    -0.2660 c3         1 CPV      -0.178700
     11 C2          -4.2860    -0.4520     0.7950 c3         1 CPV      -0.043700
     12 CB1         -1.7890    -0.4780     0.3260 c3         1 CPV      -0.065400
     13 CD1          3.5130     0.1150     1.1730 c6         1 CPV      -0.073400
     14 CD2          4.2950     0.5970    -1.1600 c6         1 CPV      -0.073400
     15 CE1          4.9510    -0.1760     1.5930 c6         1 CPV      -0.072900
     16 CE2          5.7330     0.3030    -0.7490 c6         1 CPV      -0.072900
     17 CG1         -5.6770    -0.2230     0.2070 c3         1 CPV      -0.078100
     18 CG2         -4.2340    -1.8320     1.4460 c3         1 CPV      -0.078100
     19 OXT         -3.6550     1.2170    -2.0880 o          1 CPV      -0.739500
     20 HN           1.8310    -2.2550     0.1420 hn         1 CPV       0.393000
     21 H2           0.3380    -2.3950     0.7370 hn         1 CPV       0.393000
     22 H3           0.7250    -0.1230     1.0280 h1         1 CPV       0.025700
     23 HB           1.7680    -0.1110    -1.8310 hc         1 CPV       0.057700
     24 HBA          1.7140     1.2290    -0.7030 hc         1 CPV       0.057700
     25 HG           3.4820    -1.2430    -0.4820 hc         1 CPV       0.037700
     26 HH          -0.6480     0.8760    -0.8800 h1         1 CPV       0.095700
     27 HOH         -0.3110    -1.7490    -1.6600 ho         1 CPV       0.441000
     28 HZ           5.8430     1.6620     0.9170 hc         1 CPV       0.032200
     29 HZA          6.9740     0.3270     1.0230 hc         1 CPV       0.032200
     30 HA          -3.3490    -1.0120    -1.0470 hc         1 CPV       0.044700
     31 H12         -4.1210     0.3000     1.5760 hc         1 CPV       0.049700
     32 HB1         -1.7040    -1.5090     0.6840 hc         1 CPV       0.014700
     33 HB1A        -1.6690     0.1660     1.2040 hc         1 CPV       0.014700
     34 HD1          3.2760     1.1680     1.3690 hc         1 CPV       0.041200
     35 HD1A         2.8260    -0.4730     1.7880 hc         1 CPV       0.041200
     36 HD2          4.1490     0.3590    -2.2180 hc         1 CPV       0.041200
     37 HD2A         4.1000     1.6720    -1.0570 hc         1 CPV       0.041200
     38 HE1          5.1400    -1.2520     1.5030 hc         1 CPV       0.031450
     39 HE1A         5.0890     0.0720     2.6490 hc         1 CPV       0.031450
     40 HE2          6.4260     0.8930    -1.3540 hc         1 CPV       0.031450
     41 HE2A         5.9620    -0.7480    -0.9550 hc         1 CPV       0.031450
     42 HG1         -5.8780    -0.9210    -0.6090 hc         1 CPV       0.017367
     43 HG1A        -6.4470    -0.3750     0.9660 hc         1 CPV       0.017367
     44 H25         -5.8040     0.7870    -0.1830 hc         1 CPV       0.017367
     45 HG2         -3.3070    -2.0000     1.9960 hc         1 CPV       0.017367
     46 HG2A        -5.0550    -1.9600     2.1540 hc         1 CPV       0.017367
     47 HG2B        -4.3200    -2.6220     0.6950 hc         1 CPV       0.017367
@<TRIPOS>BOND
     1     1     3 1   
     2     1    10 1   
     3     1    19 1   
     4     2     4 1   
     5     2    20 1   
     6     2    21 1   
     7     4     5 1   
     8     4     7 1   
     9     4    22 1   
    10     5     6 1   
    11     5    23 1   
    12     5    24 1   
    13     6    13 1   
    14     6    14 1   
    15     6    25 1   
    16     7     8 1   
    17     7    12 1   
    18     7    26 1   
    19     8    27 1   
    20     9    15 1   
    21     9    16 1   
    22     9    28 1   
    23     9    29 1   
    24    10    11 1   
    25    10    12 1   
    26    10    30 1   
    27    11    17 1   
    28    11    18 1   
    29    11    31 1   
    30    12    32 1   
    31    12    33 1   
    32    13    15 1   
    33    13    34 1   
    34    13    35 1   
    35    14    16 1   
    36    14    36 1   
    37    14    37 1   
    38    15    38 1   
    39    15    39 1   
    40    16    40 1   
    41    16    41 1   
    42    17    42 1   
    43    17    43 1   
    44    17    44 1   
    45    18    45 1   
    46    18    46 1   
    47    18    47 1   
@<TRIPOS>SUBSTRUCTURE
     1 CPV         1 TEMP              0 ****  ****    0 ROOT
