@<TRIPOS>MOLECULE
CPV
   47    47     1     0     0
SMALL
No Charge or Current Charge


@<TRIPOS>ATOM
      1 C           -3.2340     1.2400    -0.7360 c          1 CPV       0.716000
      2 N            0.9730    -2.2030    -0.2360 n8         1 CPV      -1.024200
      3 O           -2.9380     2.1390     0.0380 o          1 CPV      -0.739500
      4 CA           0.7460    -0.7330    -0.1410 c3         1 CPV       0.123500
      5 CB           1.8940     0.0260    -0.8630 c3         1 CPV      -0.078400
      6 CG           3.3440    -0.1920    -0.3160 c6         1 CPV      -0.062700
      7 CH          -0.6580    -0.3690    -0.7240 c3         1 CPV       0.176300
      8 OH          -0.8180    -1.2220    -1.8570 oh         1 CPV      -0.647000
      9 CZ           5.9680     0.7920     0.7780 c6         1 CPV      -0.072400
     10 C1          -3.2380    -0.2200    -0.2100 c3         1 CPV      -0.178700
     11 C2          -4.3580    -0.4410     0.8650 c3         1 CPV      -0.043700
     12 CB1         -1.8130    -0.6350     0.2840 c3         1 CPV      -0.065400
     13 CD1          3.4990     0.2530     1.1690 c6         1 CPV      -0.073400
     14 CD2          4.3800     0.5520    -1.2070 c6         1 CPV      -0.073400
     15 CE1          4.9480     0.0550     1.6780 c6         1 CPV      -0.072900
     16 CE2          5.8280     0.3480    -0.6970 c6         1 CPV      -0.072900
     17 CG1         -5.7500     0.0190     0.3620 c3         1 CPV      -0.078100
     18 CG2         -4.4420    -1.9050     1.3670 c3         1 CPV      -0.078100
     19 OXT         -3.5070     1.4350    -1.9120 o          1 CPV      -0.739500
     20 HN           1.9470    -2.3990     0.0230 hn         1 CPV       0.393000
     21 H2           0.4360    -2.6710     0.5050 hn         1 CPV       0.393000
     22 H3           0.7670    -0.4500     0.9200 h1         1 CPV       0.025700
     23 HB           1.8670    -0.2440    -1.9260 hc         1 CPV       0.057700
     24 HBA          1.6640     1.0990    -0.8280 hc         1 CPV       0.057700
     25 HG           3.5560    -1.2680    -0.3830 hc         1 CPV       0.037700
     26 HH          -0.6660     0.6930    -1.0110 h1         1 CPV       0.095700
     27 HOH         -0.1560    -1.9260    -1.6240 ho         1 CPV       0.441000
     28 HZ           5.8140     1.8770     0.8550 hc         1 CPV       0.032200
     29 HZA          6.9890     0.5950     1.1320 hc         1 CPV       0.032200
     30 HA          -3.4880    -0.8660    -1.0610 hc         1 CPV       0.044700
     31 H12         -4.1130     0.1820     1.7350 hc         1 CPV       0.049700
     32 HB1         -1.8080    -1.7000     0.5400 hc         1 CPV       0.014700
     33 HB1A        -1.5950    -0.0920     1.2120 hc         1 CPV       0.014700
     34 HD1          3.2140     1.3090     1.2740 hc         1 CPV       0.041200
     35 HD1A         2.8190    -0.3190     1.8140 hc         1 CPV       0.041200
     36 HD2          4.3070     0.1970    -2.2440 hc         1 CPV       0.041200
     37 HD2A         4.1490     1.6270    -1.2310 hc         1 CPV       0.041200
     38 HE1          5.1870    -1.0180     1.7040 hc         1 CPV       0.031450
     39 HE1A         5.0330     0.4180     2.7110 hc         1 CPV       0.031450
     40 HE2          6.5280     0.9160    -1.3250 hc         1 CPV       0.031450
     41 HE2A         6.1090    -0.7100    -0.7940 hc         1 CPV       0.031450
     42 HG1         -6.0400    -0.5330    -0.5400 hc         1 CPV       0.017367
     43 HG1A        -6.5160    -0.1540     1.1280 hc         1 CPV       0.017367
     44 H25         -5.7590     1.0900     0.1290 hc         1 CPV       0.017367
     45 HG2         -3.5380    -2.1930     1.9150 hc         1 CPV       0.017367
     46 HG2A        -5.2870    -2.0310     2.0550 hc         1 CPV       0.017367
     47 HG2B        -4.5790    -2.5990     0.5290 hc         1 CPV       0.017367
@<TRIPOS>BOND
     1     1     3 1   
     2     1    10 1   
     3     1    19 1   
     4     2     4 1   
     5     2    20 1   
     6     2    21 1   
     7     4     5 1   
     8     4     7 1   
     9     4    22 1   
    10     5     6 1   
    11     5    23 1   
    12     5    24 1   
    13     6    13 1   
    14     6    14 1   
    15     6    25 1   
    16     7     8 1   
    17     7    12 1   
    18     7    26 1   
    19     8    27 1   
    20     9    15 1   
    21     9    16 1   
    22     9    28 1   
    23     9    29 1   
    24    10    11 1   
    25    10    12 1   
    26    10    30 1   
    27    11    17 1   
    28    11    18 1   
    29    11    31 1   
    30    12    32 1   
    31    12    33 1   
    32    13    15 1   
    33    13    34 1   
    34    13    35 1   
    35    14    16 1   
    36    14    36 1   
    37    14    37 1   
    38    15    38 1   
    39    15    39 1   
    40    16    40 1   
    41    16    41 1   
    42    17    42 1   
    43    17    43 1   
    44    17    44 1   
    45    18    45 1   
    46    18    46 1   
    47    18    47 1   
@<TRIPOS>SUBSTRUCTURE
     1 CPV         1 TEMP              0 ****  ****    0 ROOT
