@<TRIPOS>MOLECULE
CPW
   29    30     1     0     0
SMALL
abcg2


@<TRIPOS>ATOM
      1 C1           0.0240    -0.8010     1.2330 c3         1 CPW       0.057000
      2 N1           0.3270    -0.5180    -0.1690 n          1 CPW      -0.283000
      3 C2           1.6390    -0.5750    -0.5960 c          1 CPW       0.607000
      4 N2           1.8380    -0.2750    -1.9210 ns         1 CPW      -0.473500
      5 C3          -0.6620    -0.2010    -1.0550 cc         1 CPW       0.123400
      6 O1           2.5660    -0.8730     0.1320 o          1 CPW      -0.558000
      7 C4          -0.4400     0.0790    -2.3570 cd         1 CPW      -0.341400
      8 C5           0.8930     0.0730    -2.8770 c          1 CPW       0.611200
      9 O2           1.2290     0.3280    -4.0220 o          1 CPW      -0.569000
     10 C6          -2.1150    -0.0820    -0.7120 c5         1 CPW      -0.054200
     11 C7          -2.7830    -0.0600    -2.0970 c5         1 CPW      -0.082400
     12 C8          -1.7040     0.4260    -3.0800 c5         1 CPW       0.006800
     13 C9          -0.1860     0.4700     2.0790 c3         1 CPW       0.009500
     14 C10         -0.4070    -0.0030     3.5360 c          1 CPW       0.727000
     15 O3          -1.4330    -0.6870     3.7240 o          1 CPW      -0.716500
     16 O4           0.4570     0.3000     4.3760 o          1 CPW      -0.716500
     17 N3           0.8680     1.4540     1.9820 n8         1 CPW      -0.983200
     18 H11         -0.8620    -1.4310     1.2710 h1         1 CPW       0.077700
     19 H12          0.8520    -1.3810     1.6340 h1         1 CPW       0.077700
     20 HN2          2.8030    -0.3080    -2.2240 hn         1 CPW       0.330500
     21 H61         -2.2870     0.8520    -0.1660 hc         1 CPW       0.081700
     22 H62         -2.4830    -0.8910    -0.0800 hc         1 CPW       0.081700
     23 H71         -3.6760     0.5640    -2.1090 hc         1 CPW       0.042200
     24 H72         -3.0860    -1.0730    -2.3630 hc         1 CPW       0.042200
     25 H81         -1.7710     1.5040    -3.2560 hc         1 CPW       0.047200
     26 H82         -1.7860    -0.0590    -4.0540 hc         1 CPW       0.047200
     27 H9          -1.1150     0.9450     1.7460 h1         1 CPW       0.040700
     28 HN31         1.7350     1.0730     2.3360 hn         1 CPW       0.383500
     29 HN32         1.0270     1.7200     1.0180 hn         1 CPW       0.383500
@<TRIPOS>BOND
     1     1     2 1   
     2     1    13 1   
     3     1    18 1   
     4     1    19 1   
     5     2     3 1   
     6     2     5 1   
     7     3     4 1   
     8     3     6 2   
     9     4     8 1   
    10     4    20 1   
    11     5     7 2   
    12     5    10 1   
    13     7     8 1   
    14     7    12 1   
    15     8     9 2   
    16    10    11 1   
    17    10    21 1   
    18    10    22 1   
    19    11    12 1   
    20    11    23 1   
    21    11    24 1   
    22    12    25 1   
    23    12    26 1   
    24    13    14 1   
    25    13    17 1   
    26    13    27 1   
    27    14    15 1   
    28    14    16 1   
    29    17    28 1   
    30    17    29 1   
@<TRIPOS>SUBSTRUCTURE
     1 CPW         1 TEMP              0 ****  ****    0 ROOT
