@<TRIPOS>MOLECULE
CPW
   29    30     1     0     0
SMALL
No Charge or Current Charge


@<TRIPOS>ATOM
      1 C1           0.0970    -0.7580     1.2400 c3         1 CPW       0.057000
      2 N1           0.3560    -0.4520    -0.1990 n          1 CPW      -0.283000
      3 C2           1.6920    -0.4670    -0.6760 c          1 CPW       0.607000
      4 N2           1.8750    -0.1780    -2.0030 ns         1 CPW      -0.473500
      5 C3          -0.6610    -0.1680    -1.1110 cc         1 CPW       0.123400
      6 O1           2.6560    -0.7130     0.0310 o          1 CPW      -0.558000
      7 C4          -0.4230     0.1090    -2.4090 cd         1 CPW      -0.341400
      8 C5           0.9390     0.1220    -2.9480 c          1 CPW       0.611200
      9 O2           1.2280     0.3680    -4.1060 o          1 CPW      -0.569000
     10 C6          -2.0990    -0.1710    -0.7000 c5         1 CPW      -0.054200
     11 C7          -2.8330    -0.1690    -2.0830 c5         1 CPW      -0.082400
     12 C8          -1.7480     0.3850    -3.0810 c5         1 CPW       0.006800
     13 C9          -0.1690     0.4870     2.1320 c3         1 CPW       0.009500
     14 C10         -0.6200     0.0130     3.5710 c          1 CPW       0.727000
     15 O3          -1.7290     0.3440     3.9710 o          1 CPW      -0.716500
     16 O4           0.1720    -0.6320     4.2480 o          1 CPW      -0.716500
     17 N3           0.9850     1.4640     2.0760 n8         1 CPW      -0.983200
     18 H11         -0.7620    -1.4370     1.3120 h1         1 CPW       0.077700
     19 H12          0.9450    -1.3170     1.6590 h1         1 CPW       0.077700
     20 HN2          2.8300    -0.1880    -2.3230 hn         1 CPW       0.330500
     21 H61         -2.3450     0.7260    -0.1230 hc         1 CPW       0.081700
     22 H62         -2.3840    -1.0460    -0.1060 hc         1 CPW       0.081700
     23 H71         -3.7500     0.4310    -2.0770 hc         1 CPW       0.042200
     24 H72         -3.1170    -1.1900    -2.3630 hc         1 CPW       0.042200
     25 H81         -1.8850     1.4600    -3.2450 hc         1 CPW       0.047200
     26 H82         -1.8280    -0.0930    -4.0640 hc         1 CPW       0.047200
     27 H9          -1.0330     1.0110     1.7050 h1         1 CPW       0.040700
     28 HN31         1.8110     1.0250     2.5010 hn         1 CPW       0.383500
     29 HN32         1.2600     1.6020     1.0980 hn         1 CPW       0.383500
@<TRIPOS>BOND
     1     1     2 1   
     2     1    13 1   
     3     1    18 1   
     4     1    19 1   
     5     2     3 1   
     6     2     5 1   
     7     3     4 1   
     8     3     6 2   
     9     4     8 1   
    10     4    20 1   
    11     5     7 2   
    12     5    10 1   
    13     7     8 1   
    14     7    12 1   
    15     8     9 2   
    16    10    11 1   
    17    10    21 1   
    18    10    22 1   
    19    11    12 1   
    20    11    23 1   
    21    11    24 1   
    22    12    25 1   
    23    12    26 1   
    24    13    14 1   
    25    13    17 1   
    26    13    27 1   
    27    14    15 1   
    28    14    16 1   
    29    17    28 1   
    30    17    29 1   
@<TRIPOS>SUBSTRUCTURE
     1 CPW         1 TEMP              0 ****  ****    0 ROOT
