@<TRIPOS>MOLECULE
CPX
   70    73     1     0     0
SMALL
bcc


@<TRIPOS>ATOM
      1 O27         -2.4230     0.9360     0.7440 o          1 CPX      -0.657100
      2 C17          5.3050     4.2040    -1.0130 cx         1 CPX      -0.096900
      3 C16          5.7650     3.1130    -1.9090 cx         1 CPX      -0.096900
      4 C12          4.3690     3.0720    -1.3450 cx         1 CPX      -0.247700
      5 C26         -3.1940     0.0880     0.3040 c          1 CPX       0.778100
      6 N4          -4.2340     0.3760    -0.5160 ns         1 CPX      -0.569900
      7 C29         -4.6570     1.7220    -0.8130 c5         1 CPX       0.111700
      8 C30         -5.3020     1.8350    -2.2030 c5         1 CPX      -0.096400
      9 C32         -6.2880     3.0180    -2.1100 c5         1 CPX      -0.078400
     10 C31         -6.2260     3.5060    -0.6500 c5         1 CPX      -0.078400
     11 C28         -5.7150     2.3010     0.1290 c5         1 CPX      -0.096400
     12 N3          -3.0580    -1.2360     0.6150 ns         1 CPX      -0.558900
     13 C13         -1.8550    -1.6940     1.2680 c3         1 CPX       0.049700
     14 C19         -1.9850    -3.1920     1.5930 c3         1 CPX      -0.065700
     15 C22         -0.6840    -3.7510     2.1550 c3         1 CPX      -0.090600
     16 C18         -3.1290    -3.4260     2.5750 c3         1 CPX      -0.090600
     17 C14         -0.6550    -1.4510     0.3460 c          1 CPX       0.656100
     18 O15         -0.7150    -1.8520    -0.8080 o          1 CPX      -0.612100
     19 N2           0.4440    -0.8360     0.8300 n          1 CPX      -0.467800
     20 C6           1.5690    -0.5440    -0.0660 c5         1 CPX       0.113700
     21 C8           2.3090     0.6220     0.6330 c5         1 CPX       0.093700
     22 C9           1.2830     1.1950     1.6050 c5         1 CPX      -0.118400
     23 C7           0.5130    -0.0320     2.0510 c5         1 CPX       0.102000
     24 N1           2.8240     1.5790    -0.3100 ns         1 CPX      -0.565900
     25 C10          4.0780     2.0710    -0.2850 c          1 CPX       0.703100
     26 O11          4.9180     1.7210     0.5340 o          1 CPX      -0.610100
     27 C25          2.4650    -1.7540    -0.3390 cy         1 CPX      -0.201000
     28 C24          2.7980    -2.4640     0.9410 c          1 CPX       0.596900
     29 O5           2.8540    -3.6600     1.0790 o          1 CPX      -0.520100
     30 C23          2.1250    -2.7210    -1.4900 cy         1 CPX      -0.064900
     31 C21          3.6120    -2.7580    -1.8800 cy         1 CPX      -0.097400
     32 C20          3.8110    -1.4610    -1.0790 cy         1 CPX      -0.064900
     33 H172         5.7040     4.2380    -0.0070 hc         1 CPX       0.081950
     34 H161         6.4760     2.3980    -1.5150 hc         1 CPX       0.081950
     35 H162         5.8590     3.3130    -2.9680 hc         1 CPX       0.081950
     36 H12          3.5600     3.2960    -2.0320 hc         1 CPX       0.084700
     37 HN4         -4.8940    -0.3570    -0.7250 hn         1 CPX       0.303500
     38 H29         -3.7740     2.3630    -0.7750 h1         1 CPX       0.082700
     39 H301        -4.5510     1.9690    -2.9820 hc         1 CPX       0.048450
     40 H302        -5.8350     0.9100    -2.4390 hc         1 CPX       0.048450
     41 H321        -6.0420     3.8150    -2.8120 hc         1 CPX       0.044700
     42 H322        -7.2980     2.6870    -2.3560 hc         1 CPX       0.044700
     43 H311        -5.5130     4.3290    -0.5580 hc         1 CPX       0.044700
     44 H312        -7.1870     3.8730    -0.2890 hc         1 CPX       0.044700
     45 H281        -6.5150     1.5670     0.2710 hc         1 CPX       0.048450
     46 H282        -5.3110     2.5510     1.1110 hc         1 CPX       0.048450
     47 HN3         -3.5210    -1.9050     0.0180 hn         1 CPX       0.308500
     48 H13         -1.7550    -1.1680     2.2170 h1         1 CPX       0.080700
     49 H19         -2.2090    -3.7180     0.6580 hc         1 CPX       0.061700
     50 H221        -0.8190    -4.7880     2.4620 hc         1 CPX       0.040033
     51 H222         0.1250    -3.7360     1.4280 hc         1 CPX       0.040033
     52 H223        -0.3600    -3.1880     3.0340 hc         1 CPX       0.040033
     53 H181        -2.9140    -2.9560     3.5380 hc         1 CPX       0.040033
     54 H182        -4.0770    -3.0280     2.2140 hc         1 CPX       0.040033
     55 H183        -3.2650    -4.4940     2.7520 hc         1 CPX       0.040033
     56 H6           1.1810    -0.1940    -1.0290 h1         1 CPX       0.072700
     57 H8           3.1640     0.2460     1.1960 h1         1 CPX       0.090700
     58 H91          0.6090     1.8790     1.0830 hc         1 CPX       0.068200
     59 H92          1.7460     1.7320     2.4320 hc         1 CPX       0.068200
     60 H71         -0.4750     0.2270     2.4160 h1         1 CPX       0.060200
     61 H72          1.0370    -0.5740     2.8430 h1         1 CPX       0.060200
     62 HN1          2.1770     1.9540    -0.9860 hn         1 CPX       0.314500
     63 H24          3.0510    -1.8040     1.7930 h4         1 CPX      -0.018800
     64 H231         1.6330    -3.6570    -1.2290 hc         1 CPX       0.062700
     65 H232         1.5280    -2.2130    -2.2460 hc         1 CPX       0.062700
     66 H211         4.1420    -3.6040    -1.4450 hc         1 CPX       0.055200
     67 H212         3.8460    -2.7130    -2.9430 hc         1 CPX       0.055200
     68 H201         3.7080    -0.5800    -1.7140 hc         1 CPX       0.062700
     69 H202         4.7100    -1.3470    -0.4720 hc         1 CPX       0.062700
     70 H171         5.0740     5.1680    -1.4440 hc         1 CPX       0.081950
@<TRIPOS>BOND
     1     1     5 2   
     2     2     3 1   
     3     2     4 1   
     4     2    33 1   
     5     2    70 1   
     6     3     4 1   
     7     3    34 1   
     8     3    35 1   
     9     4    25 1   
    10     4    36 1   
    11     5     6 1   
    12     5    12 1   
    13     6     7 1   
    14     6    37 1   
    15     7     8 1   
    16     7    11 1   
    17     7    38 1   
    18     8     9 1   
    19     8    39 1   
    20     8    40 1   
    21     9    10 1   
    22     9    41 1   
    23     9    42 1   
    24    10    11 1   
    25    10    43 1   
    26    10    44 1   
    27    11    45 1   
    28    11    46 1   
    29    12    13 1   
    30    12    47 1   
    31    13    14 1   
    32    13    17 1   
    33    13    48 1   
    34    14    15 1   
    35    14    16 1   
    36    14    49 1   
    37    15    50 1   
    38    15    51 1   
    39    15    52 1   
    40    16    53 1   
    41    16    54 1   
    42    16    55 1   
    43    17    18 2   
    44    17    19 1   
    45    19    20 1   
    46    19    23 1   
    47    20    21 1   
    48    20    27 1   
    49    20    56 1   
    50    21    22 1   
    51    21    24 1   
    52    21    57 1   
    53    22    23 1   
    54    22    58 1   
    55    22    59 1   
    56    23    60 1   
    57    23    61 1   
    58    24    25 1   
    59    24    62 1   
    60    25    26 2   
    61    27    28 1   
    62    27    30 1   
    63    27    32 1   
    64    28    29 2   
    65    28    63 1   
    66    30    31 1   
    67    30    64 1   
    68    30    65 1   
    69    31    32 1   
    70    31    66 1   
    71    31    67 1   
    72    32    68 1   
    73    32    69 1   
@<TRIPOS>SUBSTRUCTURE
     1 CPX         1 TEMP              0 ****  ****    0 ROOT
