@<TRIPOS>MOLECULE
CPX
   70    73     1     0     0
SMALL
No Charge or Current Charge


@<TRIPOS>ATOM
      1 O27         -3.9780     1.1920     1.3620 o          1 CPX      -0.657100
      2 C17          6.6190     3.1560    -0.8800 cx         1 CPX      -0.096900
      3 C16          7.7540     2.2820    -0.4030 cx         1 CPX      -0.096900
      4 C12          6.5190     1.6480    -1.0120 cx         1 CPX      -0.247700
      5 C26         -3.9040     0.6700     0.2620 c          1 CPX       0.644100
      6 N4          -4.8880     0.7320    -0.6930 ns         1 CPX      -0.502900
      7 C29         -6.1350     1.4240    -0.3600 c5         1 CPX       0.111700
      8 C30         -6.8730     1.6210    -1.7020 c5         1 CPX      -0.096400
      9 C32         -8.3170     1.8940    -1.1950 c5         1 CPX      -0.078400
     10 C31         -8.4600     1.0070     0.0900 c5         1 CPX      -0.078400
     11 C28         -7.0550     0.3660     0.2980 c5         1 CPX      -0.096400
     12 N3          -2.8180    -0.0450    -0.1640 ns         1 CPX      -0.491900
     13 C13         -1.6030    -0.3130     0.6430 c3         1 CPX       0.049700
     14 C19         -1.6640    -1.7020     1.3770 c3         1 CPX      -0.065700
     15 C22         -0.7650    -1.7490     2.6350 c3         1 CPX      -0.090600
     16 C18         -3.0980    -2.1670     1.7500 c3         1 CPX      -0.090600
     17 C14         -0.3460    -0.1790    -0.2870 c          1 CPX       0.589100
     18 O15         -0.4510    -0.3190    -1.5020 o          1 CPX      -0.612100
     19 N2           0.9230     0.0600     0.2950 n          1 CPX      -0.400800
     20 C6           2.1720     0.0210    -0.5100 c5         1 CPX       0.113700
     21 C8           3.2120     0.5940     0.5000 c5         1 CPX       0.093700
     22 C9           2.3890     1.7330     1.1340 c5         1 CPX      -0.118400
     23 C7           1.0680     0.9850     1.4540 c5         1 CPX       0.102000
     24 N1           4.2480     1.2610    -0.3000 ns         1 CPX      -0.498900
     25 C10          5.5650     0.9030    -0.1160 c          1 CPX       0.636100
     26 O11          5.9390     0.0570     0.6840 o          1 CPX      -0.610100
     27 C25          2.4930    -1.5000    -0.6900 cy         1 CPX      -0.201000
     28 C24          2.4660    -2.5060     0.5600 c          1 CPX       0.596900
     29 O5           1.6950    -3.3810     0.9410 o          1 CPX      -0.520100
     30 C23          1.7840    -2.4660    -1.7330 cy         1 CPX      -0.064900
     31 C21          3.1260    -3.2550    -1.9320 cy         1 CPX      -0.097400
     32 C20          3.8710    -2.0480    -1.2600 cy         1 CPX      -0.064900
     33 H172         6.0120     3.6500    -0.1230 hc         1 CPX       0.081950
     34 H161         7.9040     2.1900     0.6710 hc         1 CPX       0.081950
     35 H162         8.6700     2.2770    -0.9890 hc         1 CPX       0.081950
     36 H12          6.6250     1.2330    -2.0110 hc         1 CPX       0.084700
     37 HN4         -4.7220     0.2670    -1.5760 hn         1 CPX       0.303500
     38 H29         -6.0230     2.3500     0.2240 h1         1 CPX       0.082700
     39 H301        -6.4690     2.4560    -2.2870 hc         1 CPX       0.048450
     40 H302        -6.8420     0.7260    -2.3370 hc         1 CPX       0.048450
     41 H321        -8.4510     2.9540    -0.9480 hc         1 CPX       0.044700
     42 H322        -9.0680     1.6480    -1.9540 hc         1 CPX       0.044700
     43 H311        -8.7450     1.6210     0.9520 hc         1 CPX       0.044700
     44 H312        -9.2350     0.2410    -0.0240 hc         1 CPX       0.044700
     45 H281        -6.9920    -0.6070    -0.2040 hc         1 CPX       0.048450
     46 H282        -6.8210     0.2030     1.3560 hc         1 CPX       0.048450
     47 HN3         -2.8390    -0.3980    -1.1120 hn         1 CPX       0.308500
     48 H13         -1.5400     0.4720     1.4040 h1         1 CPX       0.080700
     49 H19         -1.2780    -2.4530     0.6760 hc         1 CPX       0.061700
     50 H221        -0.8480    -2.7210     3.1360 hc         1 CPX       0.040033
     51 H222         0.2880    -1.6110     2.3770 hc         1 CPX       0.040033
     52 H223        -1.0530    -0.9710     3.3520 hc         1 CPX       0.040033
     53 H181        -3.5830    -1.4450     2.4180 hc         1 CPX       0.040033
     54 H182        -3.7240    -2.2930     0.8580 hc         1 CPX       0.040033
     55 H183        -3.0700    -3.1360     2.2630 hc         1 CPX       0.040033
     56 H6           2.0920     0.6020    -1.4390 h1         1 CPX       0.072700
     57 H8           3.5660    -0.1240     1.2520 h1         1 CPX       0.090700
     58 H91          2.2060     2.5560     0.4320 hc         1 CPX       0.068200
     59 H92          2.8630     2.1570     2.0260 hc         1 CPX       0.068200
     60 H71          0.2320     1.6910     1.5450 h1         1 CPX       0.060200
     61 H72          1.1530     0.4290     2.3960 h1         1 CPX       0.060200
     62 HN1          4.0620     1.9740    -0.9940 hn         1 CPX       0.314500
     63 H24          3.3360    -2.3110     1.2270 h4         1 CPX      -0.018800
     64 H231         0.9160    -3.0470    -1.4000 hc         1 CPX       0.062700
     65 H232         1.4720    -1.9430    -2.6440 hc         1 CPX       0.062700
     66 H211         3.1890    -4.2000    -1.3790 hc         1 CPX       0.055200
     67 H212         3.4020    -3.4540    -2.9730 hc         1 CPX       0.055200
     68 H201         4.3220    -1.3710    -1.9940 hc         1 CPX       0.062700
     69 H202         4.6650    -2.3080    -0.5480 hc         1 CPX       0.062700
     70 H171         6.7730     3.7370    -1.7860 hc         1 CPX       0.081950
@<TRIPOS>BOND
     1     1     5 2   
     2     2     3 1   
     3     2     4 1   
     4     2    33 1   
     5     2    70 1   
     6     3     4 1   
     7     3    34 1   
     8     3    35 1   
     9     4    25 1   
    10     4    36 1   
    11     5     6 1   
    12     5    12 1   
    13     6     7 1   
    14     6    37 1   
    15     7     8 1   
    16     7    11 1   
    17     7    38 1   
    18     8     9 1   
    19     8    39 1   
    20     8    40 1   
    21     9    10 1   
    22     9    41 1   
    23     9    42 1   
    24    10    11 1   
    25    10    43 1   
    26    10    44 1   
    27    11    45 1   
    28    11    46 1   
    29    12    13 1   
    30    12    47 1   
    31    13    14 1   
    32    13    17 1   
    33    13    48 1   
    34    14    15 1   
    35    14    16 1   
    36    14    49 1   
    37    15    50 1   
    38    15    51 1   
    39    15    52 1   
    40    16    53 1   
    41    16    54 1   
    42    16    55 1   
    43    17    18 2   
    44    17    19 1   
    45    19    20 1   
    46    19    23 1   
    47    20    21 1   
    48    20    27 1   
    49    20    56 1   
    50    21    22 1   
    51    21    24 1   
    52    21    57 1   
    53    22    23 1   
    54    22    58 1   
    55    22    59 1   
    56    23    60 1   
    57    23    61 1   
    58    24    25 1   
    59    24    62 1   
    60    25    26 2   
    61    27    28 1   
    62    27    30 1   
    63    27    32 1   
    64    28    29 2   
    65    28    63 1   
    66    30    31 1   
    67    30    64 1   
    68    30    65 1   
    69    31    32 1   
    70    31    66 1   
    71    31    67 1   
    72    32    68 1   
    73    32    69 1   
@<TRIPOS>SUBSTRUCTURE
     1 CPX         1 TEMP              0 ****  ****    0 ROOT
