@<TRIPOS>MOLECULE
CPY
   43    44     1     0     0
SMALL
abcg2


@<TRIPOS>ATOM
      1 N           34.8530    -9.1390     1.7880 n8         1 CPY      -0.999200
      2 CA          35.9150    -8.8700     2.7740 c3         1 CPY       0.178500
      3 CB          35.9840    -7.3730     3.1050 c3         1 CPY      -0.076400
      4 CG          37.0260    -6.5790     2.3090 c6         1 CPY      -0.066700
      5 CD1         37.0790    -5.1260     2.7980 c6         1 CPY      -0.071400
      6 CD2         36.8060    -6.6210     0.7930 c6         1 CPY      -0.071400
      7 CE1         38.1200    -4.2960     2.0460 c6         1 CPY      -0.073400
      8 CE2         37.8450    -5.7910     0.0350 c6         1 CPY      -0.073400
      9 CZ          37.8870    -4.3460     0.5360 c6         1 CPY      -0.074400
     10 CH          35.7020    -9.7060     4.0400 c3         1 CPY       0.160300
     11 OH          34.4840    -9.3170     4.6840 oh         1 CPY      -0.648000
     12 CM          35.6840   -11.2030     3.7260 c3         1 CPY       0.056000
     13 N1          35.6160   -12.0130     4.9450 n          1 CPY      -0.276000
     14 C2          36.8090   -12.2520     5.6430 c          1 CPY       0.541200
     15 O2          37.8830   -11.8060     5.2100 o          1 CPY      -0.575000
     16 C3          36.6630   -13.0230     6.8460 cc         1 CPY      -0.325200
     17 C4          35.4470   -13.4700     7.2700 cd         1 CPY      -0.081000
     18 C5          34.2810   -13.1910     6.5240 cd         1 CPY      -0.307000
     19 C6          34.4080   -12.4660     5.3780 cc         1 CPY      -0.024400
     20 HN1         35.0290   -10.0120     1.3020 hn         1 CPY       0.394500
     21 HN2         34.8640    -8.4200     1.0740 hn         1 CPY       0.394500
     22 HA          36.9000    -9.1750     2.3920 h1         1 CPY       0.026700
     23 HB1         34.9930    -6.9320     2.9550 hc         1 CPY       0.057700
     24 HB2         36.2120    -7.2540     4.1670 hc         1 CPY       0.057700
     25 HG          38.0070    -7.0300     2.5110 hc         1 CPY       0.044700
     26 HD11        36.0900    -4.6730     2.6610 hc         1 CPY       0.037450
     27 HD12        37.2860    -5.1090     3.8720 hc         1 CPY       0.037450
     28 HD21        36.8360    -7.6540     0.4360 hc         1 CPY       0.037450
     29 HD22        35.8030    -6.2350     0.5710 hc         1 CPY       0.037450
     30 HE11        38.1020    -3.2610     2.3990 hc         1 CPY       0.038950
     31 HE12        39.1200    -4.6870     2.2680 hc         1 CPY       0.038950
     32 HE21        38.8330    -6.2460     0.1690 hc         1 CPY       0.038950
     33 HE22        37.6310    -5.8150    -1.0370 hc         1 CPY       0.038950
     34 HCZ1        36.9340    -3.8580     0.3030 hc         1 CPY       0.038700
     35 HCZ2        38.6660    -3.7860     0.0120 hc         1 CPY       0.038700
     36 HH          36.5460    -9.5040     4.7040 h1         1 CPY       0.052700
     37 HO          34.5740    -9.4780     5.6300 ho         1 CPY       0.437000
     38 HM1         34.8140   -11.4470     3.1200 h1         1 CPY       0.075700
     39 HM2         36.5880   -11.4780     3.1880 h1         1 CPY       0.075700
     40 HC3         37.5690   -13.2250     7.4000 ha         1 CPY       0.208000
     41 HC4         35.3730   -14.0460     8.1850 ha         1 CPY       0.186000
     42 HC5         33.3080   -13.5390     6.8360 ha         1 CPY       0.201000
     43 HC6         33.5660   -12.2150     4.7510 h4         1 CPY       0.210000
@<TRIPOS>BOND
     1     1     2 1   
     2     1    20 1   
     3     1    21 1   
     4     2     3 1   
     5     2    10 1   
     6     2    22 1   
     7     3     4 1   
     8     3    23 1   
     9     3    24 1   
    10     4     5 1   
    11     4     6 1   
    12     4    25 1   
    13     5     7 1   
    14     5    26 1   
    15     5    27 1   
    16     6     8 1   
    17     6    28 1   
    18     6    29 1   
    19     7     9 1   
    20     7    30 1   
    21     7    31 1   
    22     8     9 1   
    23     8    32 1   
    24     8    33 1   
    25     9    34 1   
    26     9    35 1   
    27    10    11 1   
    28    10    12 1   
    29    10    36 1   
    30    11    37 1   
    31    12    13 1   
    32    12    38 1   
    33    12    39 1   
    34    13    14 1   
    35    13    19 1   
    36    14    15 2   
    37    14    16 1   
    38    16    17 2   
    39    16    40 1   
    40    17    18 1   
    41    17    41 1   
    42    18    19 2   
    43    18    42 1   
    44    19    43 1   
@<TRIPOS>SUBSTRUCTURE
     1 CPY         1 TEMP              0 ****  ****    0 ROOT
