@<TRIPOS>MOLECULE
CPZ
   19    20     1     0     0
SMALL
No Charge or Current Charge


@<TRIPOS>ATOM
      1 C11          0.9240    -0.2920     0.5760 ca         1 CPZ      -0.098000
      2 C10          0.8930    -0.2720     1.9820 ca         1 CPZ      -0.097000
      3 C9           1.8120    -1.0370     2.7160 ca         1 CPZ       0.118000
      4 C8           2.7610    -1.8230     2.0470 ca         1 CPZ      -0.097000
      5 C7           2.7920    -1.8440     0.6410 ca         1 CPZ      -0.098000
      6 C6           1.8750    -1.0790    -0.1130 ca         1 CPZ       0.003000
      7 C4           1.9250    -1.1160    -1.5810 cc         1 CPZ      -0.165000
      8 C2           1.0870    -0.4160    -2.4150 cd         1 CPZ       0.255900
      9 N1           1.4160    -0.6840    -3.7320 nd         1 CPZ      -0.671000
     10 C5           2.4370    -1.5330    -3.6950 cc         1 CPZ       0.397400
     11 N3           2.7790    -1.8230    -2.3970 na         1 CPZ      -0.293500
     12 Cl           1.7720    -1.0110     4.4740 cl         1 CPZ      -0.199000
     13 H11          0.2000     0.3100     0.0340 ha         1 CPZ       0.117000
     14 H10          0.1580     0.3370     2.5020 ha         1 CPZ       0.131000
     15 H8           3.4720    -2.4160     2.6170 ha         1 CPZ       0.131000
     16 H7           3.5360    -2.4590     0.1420 ha         1 CPZ       0.117000
     17 H2           0.2770     0.2570    -2.1620 h4         1 CPZ       0.040100
     18 H5           2.9550    -1.9610    -4.5460 h5         1 CPZ       0.057100
     19 HN3          3.5270    -2.4450    -2.1160 hn         1 CPZ       0.353000
@<TRIPOS>BOND
     1     1     2 ar  
     2     1     6 ar  
     3     1    13 1   
     4     2     3 ar  
     5     2    14 1   
     6     3     4 ar  
     7     3    12 1   
     8     4     5 ar  
     9     4    15 1   
    10     5     6 ar  
    11     5    16 1   
    12     6     7 1   
    13     7     8 2   
    14     7    11 1   
    15     8     9 1   
    16     8    17 1   
    17     9    10 2   
    18    10    11 1   
    19    10    18 1   
    20    11    19 1   
@<TRIPOS>SUBSTRUCTURE
     1 CPZ         1 TEMP              0 ****  ****    0 ROOT
