@<TRIPOS>MOLECULE
CPZ
   19    20     1     0     0
SMALL
abcg2


@<TRIPOS>ATOM
      1 C11          0.8380    -0.4370     0.5890 ca         1 CPZ      -0.098000
      2 C10          0.8080    -0.4290     1.9720 ca         1 CPZ      -0.097000
      3 C9           1.8170    -1.0690     2.6780 ca         1 CPZ       0.118000
      4 C8           2.8520    -1.7060     2.0140 ca         1 CPZ      -0.097000
      5 C7           2.8770    -1.6980     0.6290 ca         1 CPZ      -0.098000
      6 C6           1.8730    -1.0670    -0.1080 ca         1 CPZ       0.003000
      7 C4           1.8910    -1.0430    -1.5630 cc         1 CPZ      -0.165000
      8 C2           1.3070    -0.1860    -2.4650 cd         1 CPZ       0.255900
      9 N1           1.6190    -0.5460    -3.7410 nd         1 CPZ      -0.671000
     10 C5           2.3810    -1.6050    -3.6280 cc         1 CPZ       0.397400
     11 N3           2.5780    -1.9380    -2.3390 na         1 CPZ      -0.293500
     12 CL           1.7790    -1.0700     4.4100 cl         1 CPZ      -0.199000
     13 H11          0.0340     0.0430     0.0460 ha         1 CPZ       0.117000
     14 H10         -0.0030     0.0610     2.4930 ha         1 CPZ       0.131000
     15 H8           3.6410    -2.1990     2.5660 ha         1 CPZ       0.131000
     16 H7           3.7080    -2.1810     0.1300 ha         1 CPZ       0.117000
     17 H2           0.6980     0.6790    -2.2510 h4         1 CPZ       0.040100
     18 H5           2.8090    -2.1710    -4.4400 h5         1 CPZ       0.057100
     19 HN3          3.0910    -2.7440    -2.0190 hn         1 CPZ       0.353000
@<TRIPOS>BOND
     1     1     2 ar  
     2     1     6 ar  
     3     1    13 1   
     4     2     3 ar  
     5     2    14 1   
     6     3     4 ar  
     7     3    12 1   
     8     4     5 ar  
     9     4    15 1   
    10     5     6 ar  
    11     5    16 1   
    12     6     7 1   
    13     7     8 2   
    14     7    11 1   
    15     8     9 1   
    16     8    17 1   
    17     9    10 2   
    18    10    11 1   
    19    10    18 1   
    20    11    19 1   
@<TRIPOS>SUBSTRUCTURE
     1 CPZ         1 TEMP              0 ****  ****    0 ROOT
