@<TRIPOS>MOLECULE
CQ0
   50    53     1     0     0
SMALL
No Charge or Current Charge


@<TRIPOS>ATOM
      1 CAA          2.6070     2.6620    -0.3150 ca         1 CQ0      -0.124000
      2 CAB          1.2400     2.3280    -0.3060 ca         1 CQ0      -0.035300
      3 CAC          0.8540     0.9580    -0.2600 ca         1 CQ0      -0.055000
      4 CAD          1.8720    -0.0250    -0.1990 ca         1 CQ0      -0.041000
      5 CAE          3.2440     0.3110    -0.2040 ca         1 CQ0      -0.152600
      6 CAF          3.6000     1.6740    -0.2680 ca         1 CQ0      -0.077000
      7 CAG         -0.5560     0.5120    -0.2920 cc         1 CQ0      -0.017000
      8 CAH         -0.8870    -0.5050     0.5910 cd         1 CQ0      -0.064000
      9 CAI         -2.2590    -0.8910     0.6260 cd         1 CQ0      -0.109000
     10 NAJ         -3.2090    -0.3160    -0.1480 na         1 CQ0       0.015200
     11 CAK         -2.9520     0.7590    -1.0090 cd         1 CQ0      -0.093000
     12 CAL         -1.6160     1.1440    -1.0540 cc         1 CQ0      -0.140000
     13 NAM         -2.8210    -1.8120     1.3850 nc         1 CQ0      -0.092000
     14 NAN         -4.1870    -1.8120     1.0840 nc         1 CQ0      -0.359700
     15 CAO         -4.4270    -0.8850     0.1490 cd         1 CQ0       0.329800
     16 CAP         -5.8220    -0.5890    -0.4300 c3         1 CQ0      -0.044300
     17 CAQ          0.2420     3.4830    -0.2520 c3         1 CQ0      -0.053800
     18 CAR          4.2800    -0.7950    -0.1510 c          1 CQ0       0.615700
     19 NAS          5.6030    -0.4060    -0.1750 ns         1 CQ0      -0.482900
     20 CAT          6.7200    -1.3110    -0.1270 cx         1 CQ0       0.049700
     21 CAU          8.0860    -0.7220     0.1210 cx         1 CQ0      -0.135400
     22 CAV          7.3980    -1.5140     1.2050 cx         1 CQ0      -0.135400
     23 OAW          3.9690    -1.9780    -0.0880 o          1 CQ0      -0.591100
     24 CAX         -5.8360    -0.8170    -1.9680 c3         1 CQ0      -0.085100
     25 CAY         -6.8880    -1.5460     0.1860 c3         1 CQ0      -0.085100
     26 CAZ         -6.2570     0.8640    -0.0920 c3         1 CQ0      -0.085100
     27 HAA          2.9080     3.7070    -0.3440 ha         1 CQ0       0.116000
     28 HAD          1.5940    -1.0760    -0.1880 ha         1 CQ0       0.143000
     29 HAF          4.6390     1.9910    -0.2740 ha         1 CQ0       0.111000
     30 HAH         -0.1620    -0.9750     1.2480 ha         1 CQ0       0.151000
     31 HAK         -3.7480     1.2110    -1.5810 h4         1 CQ0       0.149000
     32 HAL         -1.3440     1.9450    -1.7320 ha         1 CQ0       0.134000
     33 HAQ         -0.0810     3.7790    -1.2570 hc         1 CQ0       0.047700
     34 HAQA        -0.6440     3.2330     0.3440 hc         1 CQ0       0.047700
     35 HAQB         0.6870     4.3700     0.2160 hc         1 CQ0       0.047700
     36 HNAS         5.7780     0.5880    -0.2350 hn         1 CQ0       0.318500
     37 HAT          6.6420    -2.1640    -0.8030 h1         1 CQ0       0.090700
     38 HAU          8.9320    -1.1830    -0.3840 hc         1 CQ0       0.077950
     39 HAUA         8.1680     0.3540     0.2540 hc         1 CQ0       0.077950
     40 HAV          7.0100    -0.9710     2.0640 hc         1 CQ0       0.077950
     41 HAVA         7.7790    -2.5070     1.4290 hc         1 CQ0       0.077950
     42 HAX         -5.5180    -1.8390    -2.2100 hc         1 CQ0       0.042144
     43 HAXA        -6.8450    -0.6740    -2.3750 hc         1 CQ0       0.042144
     44 HAXB        -5.1720    -0.1280    -2.4980 hc         1 CQ0       0.042144
     45 HAY         -6.9470    -1.4230     1.2750 hc         1 CQ0       0.042144
     46 HAYA        -7.8850    -1.3440    -0.2250 hc         1 CQ0       0.042144
     47 HAYB        -6.6480    -2.5950    -0.0260 hc         1 CQ0       0.042144
     48 HAZ         -5.6040     1.6120    -0.5510 hc         1 CQ0       0.042144
     49 HAZA        -7.2760     1.0600    -0.4460 hc         1 CQ0       0.042144
     50 HAZB        -6.2400     1.0290     0.9930 hc         1 CQ0       0.042144
@<TRIPOS>BOND
     1     1     2 ar  
     2     1     6 ar  
     3     1    27 1   
     4     2     3 ar  
     5     2    17 1   
     6     3     4 ar  
     7     3     7 1   
     8     4     5 ar  
     9     4    28 1   
    10     5     6 ar  
    11     5    18 1   
    12     6    29 1   
    13     7     8 2   
    14     7    12 1   
    15     8     9 1   
    16     8    30 1   
    17     9    10 1   
    18     9    13 2   
    19    10    11 1   
    20    10    15 1   
    21    11    12 2   
    22    11    31 1   
    23    12    32 1   
    24    13    14 1   
    25    14    15 2   
    26    15    16 1   
    27    16    24 1   
    28    16    25 1   
    29    16    26 1   
    30    17    33 1   
    31    17    34 1   
    32    17    35 1   
    33    18    19 1   
    34    18    23 2   
    35    19    20 1   
    36    19    36 1   
    37    20    21 1   
    38    20    22 1   
    39    20    37 1   
    40    21    22 1   
    41    21    38 1   
    42    21    39 1   
    43    22    40 1   
    44    22    41 1   
    45    24    42 1   
    46    24    43 1   
    47    24    44 1   
    48    25    45 1   
    49    25    46 1   
    50    25    47 1   
    51    26    48 1   
    52    26    49 1   
    53    26    50 1   
@<TRIPOS>SUBSTRUCTURE
     1 CQ0         1 TEMP              0 ****  ****    0 ROOT
