@<TRIPOS>MOLECULE
CQ0
   50    53     1     0     0
SMALL
abcg2


@<TRIPOS>ATOM
      1 CAA          2.5470     2.8610    -0.4320 ca         1 CQ0      -0.124000
      2 CAB          1.2080     2.5010    -0.3140 ca         1 CQ0      -0.035300
      3 CAC          0.8930     1.1340    -0.2820 ca         1 CQ0      -0.055000
      4 CAD          1.9080     0.1880    -0.3570 ca         1 CQ0      -0.041000
      5 CAE          3.2450     0.5580    -0.4600 ca         1 CQ0      -0.152600
      6 CAF          3.5540     1.9140    -0.5090 ca         1 CQ0      -0.077000
      7 CAG         -0.5040     0.6640    -0.1600 cc         1 CQ0      -0.017000
      8 CAH         -0.8700    -0.1780     0.8460 cd         1 CQ0      -0.064000
      9 CAI         -2.2080    -0.6270     0.9210 cd         1 CQ0      -0.109000
     10 NAJ         -3.1230    -0.2130    -0.0220 na         1 CQ0       0.015200
     11 CAK         -2.7610     0.6230    -1.0470 cd         1 CQ0      -0.093000
     12 CAL         -1.4860     1.0600    -1.1230 cc         1 CQ0      -0.140000
     13 NAM         -2.7960    -1.4200     1.7860 nc         1 CQ0      -0.092000
     14 NAN         -4.0840    -1.5240     1.4130 nc         1 CQ0      -0.359700
     15 CAO         -4.3040    -0.8150     0.3390 cd         1 CQ0       0.329800
     16 CAP         -5.6270    -0.6790    -0.3630 c3         1 CQ0      -0.044300
     17 CAQ          0.1590     3.5690    -0.2060 c3         1 CQ0      -0.053800
     18 CAR          4.2680    -0.5290    -0.5420 c          1 CQ0       0.615700
     19 NAS          5.5270    -0.1940    -0.2100 ns         1 CQ0      -0.482900
     20 CAT          6.6020    -1.1280    -0.2790 cx         1 CQ0       0.049700
     21 CAU          7.6810    -1.0180     0.7480 cx         1 CQ0      -0.135400
     22 CAV          6.7320    -2.1770     0.7810 cx         1 CQ0      -0.135400
     23 OAW          3.9610    -1.6620    -0.8830 o          1 CQ0      -0.591100
     24 CAX         -5.5230    -1.1870    -1.8070 c3         1 CQ0      -0.085100
     25 CAY         -6.6610    -1.5290     0.3790 c3         1 CQ0      -0.085100
     26 CAZ         -6.0900     0.7840    -0.3400 c3         1 CQ0      -0.085100
     27 HAA          2.8090     3.9120    -0.4630 ha         1 CQ0       0.116000
     28 HAD          1.6500    -0.8640    -0.3400 ha         1 CQ0       0.143000
     29 HAF          4.5740     2.2580    -0.6250 ha         1 CQ0       0.111000
     30 HAH         -0.1720    -0.5090     1.6030 ha         1 CQ0       0.151000
     31 HAK         -3.5140     0.8920    -1.7680 h4         1 CQ0       0.149000
     32 HAL         -1.2150     1.7040    -1.9480 ha         1 CQ0       0.134000
     33 HAQ         -0.3030     3.7730    -1.1740 hc         1 CQ0       0.047700
     34 HAQA        -0.6400     3.2910     0.4810 hc         1 CQ0       0.047700
     35 HAQB         0.5950     4.5030     0.1450 hc         1 CQ0       0.047700
     36 HNAS         5.7380     0.7450     0.0860 hn         1 CQ0       0.318500
     37 HAT          6.9020    -1.4070    -1.2840 h1         1 CQ0       0.090700
     38 HAU          8.7000    -1.1850     0.4270 hc         1 CQ0       0.077950
     39 HAUA         7.5690    -0.2560     1.5090 hc         1 CQ0       0.077950
     40 HAV          5.9850    -2.1940     1.5640 hc         1 CQ0       0.077950
     41 HAVA         7.0930    -3.1510     0.4800 hc         1 CQ0       0.077950
     42 HAX         -5.2010    -2.2290    -1.8360 hc         1 CQ0       0.042144
     43 HAXA        -6.5000    -1.1260    -2.2880 hc         1 CQ0       0.042144
     44 HAXB        -4.8300    -0.6070    -2.4170 hc         1 CQ0       0.042144
     45 HAY         -6.8030    -1.1910     1.4050 hc         1 CQ0       0.042144
     46 HAYA        -7.6200    -1.4550    -0.1370 hc         1 CQ0       0.042144
     47 HAYB        -6.3750    -2.5800     0.4050 hc         1 CQ0       0.042144
     48 HAZ         -5.4340     1.4520    -0.9000 hc         1 CQ0       0.042144
     49 HAZA        -7.0820     0.8630    -0.7850 hc         1 CQ0       0.042144
     50 HAZB        -6.1520     1.1580     0.6840 hc         1 CQ0       0.042144
@<TRIPOS>BOND
     1     1     2 ar  
     2     1     6 ar  
     3     1    27 1   
     4     2     3 ar  
     5     2    17 1   
     6     3     4 ar  
     7     3     7 1   
     8     4     5 ar  
     9     4    28 1   
    10     5     6 ar  
    11     5    18 1   
    12     6    29 1   
    13     7     8 2   
    14     7    12 1   
    15     8     9 1   
    16     8    30 1   
    17     9    10 1   
    18     9    13 2   
    19    10    11 1   
    20    10    15 1   
    21    11    12 2   
    22    11    31 1   
    23    12    32 1   
    24    13    14 1   
    25    14    15 2   
    26    15    16 1   
    27    16    24 1   
    28    16    25 1   
    29    16    26 1   
    30    17    33 1   
    31    17    34 1   
    32    17    35 1   
    33    18    19 1   
    34    18    23 2   
    35    19    20 1   
    36    19    36 1   
    37    20    21 1   
    38    20    22 1   
    39    20    37 1   
    40    21    22 1   
    41    21    38 1   
    42    21    39 1   
    43    22    40 1   
    44    22    41 1   
    45    24    42 1   
    46    24    43 1   
    47    24    44 1   
    48    25    45 1   
    49    25    46 1   
    50    25    47 1   
    51    26    48 1   
    52    26    49 1   
    53    26    50 1   
@<TRIPOS>SUBSTRUCTURE
     1 CQ0         1 TEMP              0 ****  ****    0 ROOT
