@<TRIPOS>MOLECULE
CQ1
   40    41     1     0     0
SMALL
bcc


@<TRIPOS>ATOM
      1 NY          -8.1260     0.9800     0.3590 n1         1 CQ1      -0.084000
      2 NX          -7.1690     0.4200     0.5210 n1         1 CQ1       0.131700
      3 NW          -6.1970    -0.2870     0.7480 ne         1 CQ1      -0.400400
      4 CZ          -4.9280     0.1940     0.4020 cd         1 CQ1       0.448900
      5 CE1         -3.8550    -0.6520     0.6840 cd         1 CQ1      -0.244100
      6 CD1         -2.5640    -0.2710     0.3820 cc         1 CQ1      -0.092500
      7 CE2         -4.6890     1.4330    -0.1900 cd         1 CQ1      -0.244100
      8 CD2         -3.3930     1.8070    -0.4880 cc         1 CQ1      -0.092500
      9 CG2         -2.3030     0.9730    -0.2130 cc         1 CQ1      -0.025000
     10 CB2         -0.9780     1.4480    -0.5570 cf         1 CQ1      -0.197800
     11 CA2          0.2110     0.8340    -0.4080 cd         1 CQ1       0.369100
     12 N2           0.4770    -0.4230     0.1120 nd         1 CQ1      -0.740000
     13 C2           1.4930     1.4570    -0.8170 cc         1 CQ1       0.228400
     14 O2           1.7230     2.5620    -1.2640 o          1 CQ1      -0.317000
     15 N3           2.4190     0.4710    -0.5630 n          1 CQ1      -0.309900
     16 CA3          3.8360     0.7260    -0.5030 c3         1 CQ1      -0.120700
     17 C3           4.3170     1.1350     0.9090 c          1 CQ1       0.915600
     18 O3           5.5260     1.4190     0.9810 o          1 CQ1      -0.817300
     19 C1           1.7520    -0.5860     0.0200 cc         1 CQ1       0.611800
     20 CA1          2.4600    -1.8440     0.4160 c3         1 CQ1       0.132200
     21 N1           1.6490    -2.5700     1.3680 n8         1 CQ1      -0.858800
     22 CB1          2.8470    -2.6240    -0.8610 c3         1 CQ1       0.097100
     23 CG1          3.6380    -3.8790    -0.5320 c3         1 CQ1      -0.132100
     24 OG1          1.6500    -2.9110    -1.5490 oh         1 CQ1      -0.590800
     25 H2          -4.0460    -1.6120     1.1450 ha         1 CQ1       0.130000
     26 H3          -1.7460    -0.9400     0.6060 ha         1 CQ1       0.155000
     27 H4          -5.5000     2.1130    -0.4210 ha         1 CQ1       0.130000
     28 H5          -3.2210     2.7720    -0.9500 ha         1 CQ1       0.155000
     29 H7          -0.9380     2.4380    -1.0000 ha         1 CQ1       0.133000
     30 H8           4.3900    -0.1500    -0.8440 h1         1 CQ1       0.044200
     31 H9           4.0630     1.5200    -1.2160 h1         1 CQ1       0.044200
     32 O1           3.4680     1.1320     1.8140 o          1 CQ1      -0.817300
     33 H14          3.3940    -1.5680     0.9150 h1         1 CQ1       0.112700
     34 H15          0.7940    -2.8800     0.9240 hn         1 CQ1       0.343800
     35 H16          2.1420    -3.4010     1.6660 hn         1 CQ1       0.343800
     36 H18          3.4920    -1.9770    -1.4730 h1         1 CQ1       0.050700
     37 H19          3.0460    -4.5920     0.0440 hc         1 CQ1       0.038367
     38 H20          3.9610    -4.3790    -1.4470 hc         1 CQ1       0.038367
     39 H21          4.5350    -3.6360     0.0380 hc         1 CQ1       0.038367
     40 H22          1.8670    -3.4340    -2.3270 ho         1 CQ1       0.393000
@<TRIPOS>BOND
     1     1     2 3   
     2     2     3 1   
     3     3     4 2   
     4     4     5 1   
     5     4     7 1   
     6     5     6 2   
     7     5    25 1   
     8     6     9 1   
     9     6    26 1   
    10     7     8 2   
    11     7    27 1   
    12     8     9 1   
    13     8    28 1   
    14     9    10 2   
    15    10    11 1   
    16    10    29 1   
    17    11    12 1   
    18    11    13 2   
    19    12    19 2   
    20    13    14 1   
    21    13    15 1   
    22    15    16 1   
    23    15    19 1   
    24    16    17 1   
    25    16    30 1   
    26    16    31 1   
    27    17    18 1   
    28    17    32 1   
    29    19    20 1   
    30    20    21 1   
    31    20    22 1   
    32    20    33 1   
    33    21    34 1   
    34    21    35 1   
    35    22    23 1   
    36    22    24 1   
    37    22    36 1   
    38    23    37 1   
    39    23    38 1   
    40    23    39 1   
    41    24    40 1   
@<TRIPOS>SUBSTRUCTURE
     1 CQ1         1 TEMP              0 ****  ****    0 ROOT
