@<TRIPOS>MOLECULE
CQ1
   40    41     1     0     0
SMALL
No Charge or Current Charge


@<TRIPOS>ATOM
      1 NY          -8.2560     0.9520    -0.0390 n1         1 CQ1      -0.084000
      2 NX          -7.2640     0.4240     0.1370 n1         1 CQ1       0.131700
      3 NW          -6.2560    -0.2720     0.3950 ne         1 CQ1      -0.400400
      4 CZ          -5.0410     0.2060     0.2520 cd         1 CQ1       0.448900
      5 CE1         -3.9680    -0.4870     0.8990 cd         1 CQ1      -0.294100
      6 CD1         -2.6700    -0.0260     0.7740 cc         1 CQ1      -0.142500
      7 CE2         -4.7450     1.3810    -0.5270 cd         1 CQ1      -0.294100
      8 CD2         -3.4380     1.8210    -0.6350 cc         1 CQ1      -0.142500
      9 CG2         -2.3380     1.1400    -0.0030 cc         1 CQ1      -0.025000
     10 CB2         -1.0590     1.6210    -0.1310 cf         1 CQ1      -0.247800
     11 CA2          0.2470     0.9460    -0.1180 cd         1 CQ1       0.303800
     12 N2           0.4250    -0.3880     0.2630 nd         1 CQ1      -0.740000
     13 C2           1.4680     1.4960    -0.4760 cc         1 CQ1       0.243000
     14 O2           1.7240     2.6280    -0.8560 o          1 CQ1      -0.317000
     15 N3           2.4070     0.5190    -0.3280 n          1 CQ1      -0.288500
     16 CA3          3.8750     0.6800    -0.5210 c3         1 CQ1      -0.091400
     17 C3           4.6170     1.2130     0.7230 c          1 CQ1       0.705000
     18 O3           5.2050     2.2800     0.6350 o          1 CQ1      -0.712000
     19 C1           1.7380    -0.5960     0.1270 cc         1 CQ1       0.611800
     20 CA1          2.4330    -1.9410     0.4290 c3         1 CQ1       0.132200
     21 N1           1.7340    -2.8270     1.4420 n8         1 CQ1      -0.969200
     22 CB1          2.7280    -2.7280    -0.8910 c3         1 CQ1       0.120300
     23 CG1          3.7980    -3.8270    -0.7160 c3         1 CQ1      -0.132100
     24 OG1          1.5300    -3.3410    -1.3930 oh         1 CQ1      -0.653000
     25 H2          -4.1810    -1.3700     1.4910 ha         1 CQ1       0.180000
     26 H3          -1.8720    -0.5530     1.2890 ha         1 CQ1       0.205000
     27 H4          -5.5360     1.9240    -1.0340 ha         1 CQ1       0.180000
     28 H5          -3.2250     2.7100    -1.2250 ha         1 CQ1       0.205000
     29 H7          -1.0050     2.5930    -0.6190 ha         1 CQ1       0.183000
     30 H8           4.3250    -0.2800    -0.7970 h1         1 CQ1       0.044200
     31 H9           4.0490     1.3740    -1.3530 h1         1 CQ1       0.044200
     32 O1           4.5630     0.5500     1.7470 o          1 CQ1      -0.712000
     33 H14          3.4090    -1.6790     0.8610 h1         1 CQ1       0.112700
     34 H15          0.7950    -3.0150     1.0690 hn         1 CQ1       0.399000
     35 H16          2.1750    -3.7520     1.4220 hn         1 CQ1       0.399000
     36 H18          3.1140    -2.0140    -1.6330 h1         1 CQ1       0.050700
     37 H19          3.4650    -4.6050    -0.0180 hc         1 CQ1       0.038367
     38 H20          4.0220    -4.3050    -1.6780 hc         1 CQ1       0.038367
     39 H21          4.7300    -3.3970    -0.3310 hc         1 CQ1       0.038367
     40 H22          1.7760    -3.8410    -2.2030 ho         1 CQ1       0.432000
@<TRIPOS>BOND
     1     1     2 3   
     2     2     3 1   
     3     3     4 2   
     4     4     5 1   
     5     4     7 1   
     6     5     6 2   
     7     5    25 1   
     8     6     9 1   
     9     6    26 1   
    10     7     8 2   
    11     7    27 1   
    12     8     9 1   
    13     8    28 1   
    14     9    10 2   
    15    10    11 1   
    16    10    29 1   
    17    11    12 1   
    18    11    13 2   
    19    12    19 2   
    20    13    14 1   
    21    13    15 1   
    22    15    16 1   
    23    15    19 1   
    24    16    17 1   
    25    16    30 1   
    26    16    31 1   
    27    17    18 1   
    28    17    32 1   
    29    19    20 1   
    30    20    21 1   
    31    20    22 1   
    32    20    33 1   
    33    21    34 1   
    34    21    35 1   
    35    22    23 1   
    36    22    24 1   
    37    22    36 1   
    38    23    37 1   
    39    23    38 1   
    40    23    39 1   
    41    24    40 1   
@<TRIPOS>SUBSTRUCTURE
     1 CQ1         1 TEMP              0 ****  ****    0 ROOT
