@<TRIPOS>MOLECULE
CQ2
   40    41     1     0     0
SMALL
No Charge or Current Charge


@<TRIPOS>ATOM
      1 CG1         -3.2390     3.8650    -0.7580 c3         1 CQ2      -0.128100
      2 CB1         -2.2170     2.7320    -1.0010 c3         1 CQ2       0.119300
      3 OG1         -1.0580     3.2970    -1.6340 oh         1 CQ2      -0.648000
      4 CA1         -1.8270     1.9600     0.3040 c3         1 CQ2       0.116200
      5 N1          -1.0650     2.8380     1.2760 n8         1 CQ2      -0.986200
      6 C1          -1.1500     0.6150    -0.0260 cc         1 CQ2       0.524900
      7 N2           0.1830     0.4360     0.0010 nd         1 CQ2      -0.653300
      8 N3          -1.8590    -0.5230    -0.3930 n          1 CQ2      -0.304300
      9 CA3         -3.3380    -0.6800    -0.4760 c3         1 CQ2      -0.062000
     10 C3          -3.9910    -1.1930     0.8260 c          1 CQ2       0.705000
     11 O3          -3.8630    -0.5180     1.8360 o          1 CQ2      -0.714000
     12 C2          -0.9870    -1.5570    -0.6280 c          1 CQ2       0.540200
     13 O2          -1.2450    -2.7080    -0.9600 o          1 CQ2      -0.526000
     14 CA2          0.3090    -0.9000    -0.3690 cd         1 CQ2       0.031400
     15 CB2          1.5340    -1.5300    -0.4710 ce         1 CQ2      -0.096200
     16 CG2          2.9120    -1.0660    -0.1180 ca         1 CQ2      -0.088800
     17 CD2          3.1460    -0.1250     0.9070 ca         1 CQ2      -0.044000
     18 CE2          4.4580     0.2740     1.2180 ca         1 CQ2      -0.203500
     19 CZ           5.5440    -0.2640     0.5170 ca         1 CQ2       0.308000
     20 NH           6.8160     0.1240     0.8230 nv         1 CQ2      -1.110000
     21 CE1          5.3230    -1.2060    -0.4950 ca         1 CQ2      -0.203500
     22 CD1          4.0130    -1.6100    -0.8100 ca         1 CQ2      -0.044000
     23 H1          -3.5260     4.3330    -1.7070 hc         1 CQ2       0.037367
     24 H2          -4.1490     3.4670    -0.2930 hc         1 CQ2       0.037367
     25 H3          -2.8320     4.6440    -0.1020 hc         1 CQ2       0.037367
     26 H4          -2.6910     2.0120    -1.6850 h1         1 CQ2       0.092700
     27 H5          -0.8140     4.1020    -1.1290 ho         1 CQ2       0.428000
     28 H6          -2.7740     1.7010     0.7990 h1         1 CQ2       0.114700
     29 H7          -0.1150     2.9750     0.9090 hn         1 CQ2       0.397000
     30 H8          -1.4770     3.7770     1.2930 hn         1 CQ2       0.397000
     31 H13         -3.8040     0.2780    -0.7310 h1         1 CQ2       0.044200
     32 H14         -3.5770    -1.3830    -1.2840 h1         1 CQ2       0.044200
     33 O1          -4.5850    -2.2610     0.7960 o          1 CQ2      -0.714000
     34 H20          1.4850    -2.5570    -0.8360 ha         1 CQ2       0.180000
     35 H21          2.3180     0.2900     1.4750 ha         1 CQ2       0.127500
     36 H22          4.6240     1.0000     2.0100 ha         1 CQ2       0.100500
     37 H23          6.9840     0.6750     1.6630 hn         1 CQ2       0.457000
     38 H24          7.6070    -0.3870     0.4340 hn         1 CQ2       0.457000
     39 H25          6.1610    -1.6310    -1.0410 ha         1 CQ2       0.100500
     40 H26          3.8540    -2.3440    -1.5980 ha         1 CQ2       0.127500
@<TRIPOS>BOND
     1     1     2 1   
     2     1    23 1   
     3     1    24 1   
     4     1    25 1   
     5     2     3 1   
     6     2     4 1   
     7     2    26 1   
     8     3    27 1   
     9     4     5 1   
    10     4     6 1   
    11     4    28 1   
    12     5    29 1   
    13     5    30 1   
    14     6     7 2   
    15     6     8 1   
    16     7    14 1   
    17     8     9 1   
    18     8    12 1   
    19     9    10 1   
    20     9    31 1   
    21     9    32 1   
    22    10    11 1   
    23    10    33 1   
    24    12    13 2   
    25    12    14 1   
    26    14    15 2   
    27    15    16 1   
    28    15    34 1   
    29    16    17 ar  
    30    16    22 ar  
    31    17    18 ar  
    32    17    35 1   
    33    18    19 ar  
    34    18    36 1   
    35    19    20 1   
    36    19    21 ar  
    37    20    37 1   
    38    20    38 1   
    39    21    22 ar  
    40    21    39 1   
    41    22    40 1   
@<TRIPOS>SUBSTRUCTURE
     1 CQ2         1 TEMP              0 ****  ****    0 ROOT
