@<TRIPOS>MOLECULE
CQ2
   40    41     1     0     0
SMALL
abcg2


@<TRIPOS>ATOM
      1 CG1         -3.0550     3.9070    -0.5920 c3         1 CQ2      -0.128100
      2 CB1         -2.2530     2.6530    -0.9020 c3         1 CQ2       0.119300
      3 OG1         -1.0790     2.9380    -1.6260 oh         1 CQ2      -0.648000
      4 CA1         -1.9470     1.8390     0.3850 c3         1 CQ2       0.116200
      5 N1          -1.1800     2.5370     1.3960 n8         1 CQ2      -0.986200
      6 C1          -1.2270     0.5870     0.0030 cc         1 CQ2       0.524900
      7 N2           0.0450     0.4280     0.1270 nd         1 CQ2      -0.653300
      8 N3          -1.8690    -0.4650    -0.6150 n          1 CQ2      -0.304300
      9 CA3         -3.2860    -0.7210    -0.6150 c3         1 CQ2      -0.062000
     10 C3          -3.8230    -1.1590     0.7670 c          1 CQ2       0.705000
     11 O3          -3.0160    -1.1570     1.7110 o          1 CQ2      -0.714000
     12 C2          -0.9290    -1.4440    -0.8540 c          1 CQ2       0.540200
     13 O2          -1.1470    -2.5450    -1.3270 o          1 CQ2      -0.526000
     14 CA2          0.3310    -0.8240    -0.4020 cd         1 CQ2       0.031400
     15 CB2          1.5320    -1.4290    -0.5260 ce         1 CQ2      -0.096200
     16 CG2          2.8440    -0.9640    -0.1560 ca         1 CQ2      -0.088800
     17 CD2          3.1060     0.2770     0.4520 ca         1 CQ2      -0.044000
     18 CE2          4.3880     0.6590     0.7750 ca         1 CQ2      -0.203500
     19 CZ           5.4860    -0.1800     0.5070 ca         1 CQ2       0.308000
     20 NH           6.7550     0.2220     0.7830 nv         1 CQ2      -1.110000
     21 CE1          5.2330    -1.4240    -0.0950 ca         1 CQ2      -0.203500
     22 CD1          3.9460    -1.7950    -0.4140 ca         1 CQ2      -0.044000
     23 H1          -3.3400     4.4140    -1.5140 hc         1 CQ2       0.037367
     24 H2          -3.9680     3.6630    -0.0480 hc         1 CQ2       0.037367
     25 H3          -2.4840     4.6160     0.0120 hc         1 CQ2       0.037367
     26 H4          -2.8540     2.0230    -1.5660 h1         1 CQ2       0.092700
     27 H5          -0.5360     3.5420    -1.1080 ho         1 CQ2       0.428000
     28 H6          -2.9090     1.5690     0.8290 h1         1 CQ2       0.114700
     29 H7          -0.2530     2.7610     1.0600 hn         1 CQ2       0.397000
     30 H8          -1.6360     3.4040     1.6470 hn         1 CQ2       0.397000
     31 H13         -3.8270     0.1630    -0.9580 h1         1 CQ2       0.044200
     32 H14         -3.4850    -1.4990    -1.3530 h1         1 CQ2       0.044200
     33 O1          -5.0300    -1.4600     0.7820 o          1 CQ2      -0.714000
     34 H20          1.5020    -2.4140    -0.9810 ha         1 CQ2       0.180000
     35 H21          2.2850     0.9470     0.6700 ha         1 CQ2       0.127500
     36 H22          4.5590     1.6210     1.2440 ha         1 CQ2       0.100500
     37 H23          6.8860     0.9900     1.4200 hn         1 CQ2       0.457000
     38 H24          7.4820    -0.4720     0.8150 hn         1 CQ2       0.457000
     39 H25          6.0580    -2.0930    -0.3110 ha         1 CQ2       0.100500
     40 H26          3.7810    -2.7600    -0.8790 ha         1 CQ2       0.127500
@<TRIPOS>BOND
     1     1     2 1   
     2     1    23 1   
     3     1    24 1   
     4     1    25 1   
     5     2     3 1   
     6     2     4 1   
     7     2    26 1   
     8     3    27 1   
     9     4     5 1   
    10     4     6 1   
    11     4    28 1   
    12     5    29 1   
    13     5    30 1   
    14     6     7 2   
    15     6     8 1   
    16     7    14 1   
    17     8     9 1   
    18     8    12 1   
    19     9    10 1   
    20     9    31 1   
    21     9    32 1   
    22    10    11 1   
    23    10    33 1   
    24    12    13 2   
    25    12    14 1   
    26    14    15 2   
    27    15    16 1   
    28    15    34 1   
    29    16    17 ar  
    30    16    22 ar  
    31    17    18 ar  
    32    17    35 1   
    33    18    19 ar  
    34    18    36 1   
    35    19    20 1   
    36    19    21 ar  
    37    20    37 1   
    38    20    38 1   
    39    21    22 ar  
    40    21    39 1   
    41    22    40 1   
@<TRIPOS>SUBSTRUCTURE
     1 CQ2         1 TEMP              0 ****  ****    0 ROOT
