@<TRIPOS>MOLECULE
CQ3
   48    50     1     0     0
SMALL
No Charge or Current Charge


@<TRIPOS>ATOM
      1 C            6.3570     1.7160    -1.1590 c3         1 CQ3      -0.077100
      2 N            3.9540    -0.6910    -0.6250 ns         1 CQ3      -0.186000
      3 O            6.1580    -1.3780    -0.6120 o          1 CQ3      -0.571100
      4 Cl           1.5420     3.0670     0.7860 cl         1 CQ3      -0.191000
      5 C1           5.6150     0.5870    -1.9090 c3         1 CQ3      -0.159400
      6 N1           1.5450     0.0030     0.6630 nu         1 CQ3      -0.937900
      7 O1          -6.9190    -0.6590    -1.3730 os         1 CQ3      -0.449000
      8 C2           5.2910    -0.5940    -0.9830 c          1 CQ3       0.600100
      9 N2          -2.2240     1.7000     0.4270 nb         1 CQ3      -0.272000
     10 C3           3.2450    -1.6680     0.1380 ca         1 CQ3      -0.082000
     11 N3          -0.7800    -0.2200     0.4670 nb         1 CQ3      -0.322000
     12 C4           3.7210    -2.9940     0.2530 ca         1 CQ3      -0.083000
     13 N4          -3.0470    -0.4900     0.2610 nu         1 CQ3      -0.912100
     14 C5           2.9940    -3.9530     0.9770 ca         1 CQ3      -0.117000
     15 C6           1.7840    -3.6010     1.5930 ca         1 CQ3      -0.098000
     16 C7           1.2990    -2.2880     1.4780 ca         1 CQ3      -0.104000
     17 C8           2.0120    -1.3180     0.7470 ca         1 CQ3       0.287000
     18 C9           0.2830     0.5880     0.6030 ca         1 CQ3       0.442900
     19 C10          0.1480     1.9880     0.6400 ca         1 CQ3      -0.136000
     20 C11         -1.1540     2.5070     0.5510 ca         1 CQ3       0.190900
     21 C12         -1.9750     0.3780     0.3880 ca         1 CQ3       0.425900
     22 C13         -4.4480    -0.1150     0.0150 c6         1 CQ3       0.246500
     23 C14         -5.3660    -1.2960     0.4050 c6         1 CQ3      -0.132400
     24 C15         -6.8320    -0.9750     0.0330 c6         1 CQ3       0.157100
     25 C16         -6.1470     0.4970    -1.7650 c6         1 CQ3       0.157100
     26 C17         -4.6500     0.2490    -1.4760 c6         1 CQ3      -0.132400
     27 H            6.5790     2.5470    -1.8400 hc         1 CQ3       0.044367
     28 HA           5.7440     2.1030    -0.3350 hc         1 CQ3       0.044367
     29 HB           7.3040     1.3520    -0.7430 hc         1 CQ3       0.044367
     30 HN           3.3680     0.0420    -1.0040 hn         1 CQ3       0.154000
     31 H1           4.6910     1.0030    -2.3280 hc         1 CQ3       0.056200
     32 H1A          6.2620     0.2320    -2.7200 hc         1 CQ3       0.056200
     33 HN1          2.2840     0.7010     0.6090 hn         1 CQ3       0.516000
     34 H4           4.6430    -3.3020    -0.2300 ha         1 CQ3       0.127000
     35 HN4         -2.7940    -1.4770     0.2230 hn         1 CQ3       0.502000
     36 H5           3.3690    -4.9710     1.0590 ha         1 CQ3       0.119000
     37 H6           1.2250    -4.3410     2.1610 ha         1 CQ3       0.116000
     38 H7           0.3730    -2.0240     1.9800 ha         1 CQ3       0.138000
     39 H11         -1.3430     3.5790     0.5760 h4         1 CQ3       0.031100
     40 H13         -4.7310     0.7500     0.6370 h1         1 CQ3       0.080700
     41 H14         -5.0550    -2.2140    -0.1120 hc         1 CQ3       0.057950
     42 H14A        -5.2920    -1.4940     1.4830 hc         1 CQ3       0.057950
     43 H15         -7.2010    -0.1230     0.6220 h1         1 CQ3       0.047950
     44 H15A        -7.4730    -1.8420     0.2460 h1         1 CQ3       0.047950
     45 H16         -6.2980     0.6820    -2.8380 h1         1 CQ3       0.047950
     46 H16A        -6.5050     1.3790    -1.2120 h1         1 CQ3       0.047950
     47 H17         -4.0710     1.1460    -1.7340 hc         1 CQ3       0.057950
     48 H17A        -4.2840    -0.5620    -2.1200 hc         1 CQ3       0.057950
@<TRIPOS>BOND
     1     1     5 1   
     2     1    27 1   
     3     1    28 1   
     4     1    29 1   
     5     2     8 1   
     6     2    10 1   
     7     2    30 1   
     8     3     8 2   
     9     4    19 1   
    10     5     8 1   
    11     5    31 1   
    12     5    32 1   
    13     6    17 1   
    14     6    18 1   
    15     6    33 1   
    16     7    24 1   
    17     7    25 1   
    18     9    20 ar  
    19     9    21 ar  
    20    10    12 ar  
    21    10    17 ar  
    22    11    18 ar  
    23    11    21 ar  
    24    12    14 ar  
    25    12    34 1   
    26    13    21 1   
    27    13    22 1   
    28    13    35 1   
    29    14    15 ar  
    30    14    36 1   
    31    15    16 ar  
    32    15    37 1   
    33    16    17 ar  
    34    16    38 1   
    35    18    19 ar  
    36    19    20 ar  
    37    20    39 1   
    38    22    23 1   
    39    22    26 1   
    40    22    40 1   
    41    23    24 1   
    42    23    41 1   
    43    23    42 1   
    44    24    43 1   
    45    24    44 1   
    46    25    26 1   
    47    25    45 1   
    48    25    46 1   
    49    26    47 1   
    50    26    48 1   
@<TRIPOS>SUBSTRUCTURE
     1 CQ3         1 TEMP              0 ****  ****    0 ROOT
