@<TRIPOS>MOLECULE
CQ3
   48    50     1     0     0
SMALL
abcg2


@<TRIPOS>ATOM
      1 C            7.0340     1.3300    -1.0740 c3         1 CQ3      -0.077100
      2 N            3.8120    -0.5620    -0.7530 ns         1 CQ3      -0.186000
      3 O            5.7440    -0.6840     0.4170 o          1 CQ3      -0.571100
      4 CL           1.3640     3.1140     0.4940 cl         1 CQ3      -0.191000
      5 C1           5.6420     0.8480    -1.4390 c3         1 CQ3      -0.159400
      6 N1           1.4940     0.1050     0.5280 nu         1 CQ3      -0.937900
      7 O1          -6.9930    -0.7340    -1.1540 os         1 CQ3      -0.449000
      8 C2           5.1000    -0.2030    -0.4950 c          1 CQ3       0.600100
      9 N2          -2.3030     1.6320     0.2880 nb         1 CQ3      -0.272000
     10 C3           3.1090    -1.5630    -0.0510 ca         1 CQ3      -0.082000
     11 N3          -0.7960    -0.2060     0.3870 nb         1 CQ3      -0.322000
     12 C4           3.5940    -2.8620     0.0230 ca         1 CQ3      -0.083000
     13 N4          -3.0410    -0.5490     0.2720 nu         1 CQ3      -0.912100
     14 C5           2.8820    -3.8410     0.6970 ca         1 CQ3      -0.117000
     15 C6           1.6760    -3.5160     1.3010 ca         1 CQ3      -0.098000
     16 C7           1.1820    -2.2230     1.2430 ca         1 CQ3      -0.104000
     17 C8           1.8960    -1.2320     0.5700 ca         1 CQ3       0.287000
     18 C9           0.2390     0.6080     0.4520 ca         1 CQ3       0.442900
     19 C10          0.0370     2.0060     0.4320 ca         1 CQ3      -0.136000
     20 C11         -1.2600     2.4490     0.3490 ca         1 CQ3       0.190900
     21 C12         -2.0210     0.3270     0.3110 ca         1 CQ3       0.425900
     22 C13         -4.4220    -0.1910     0.0370 c6         1 CQ3       0.246500
     23 C14         -5.3370    -1.3030     0.5380 c6         1 CQ3      -0.132400
     24 C15         -6.7870    -0.9670     0.2210 c6         1 CQ3       0.157100
     25 C16         -6.2100     0.3390    -1.6300 c6         1 CQ3       0.157100
     26 C17         -4.7230     0.0860    -1.4360 c6         1 CQ3      -0.132400
     27 H            7.3640     2.0860    -1.7860 hc         1 CQ3       0.044367
     28 HA           7.0570     1.7770    -0.0810 hc         1 CQ3       0.044367
     29 HB           7.7600     0.5170    -1.0950 hc         1 CQ3       0.044367
     30 HN           3.3440    -0.1250    -1.5340 hn         1 CQ3       0.154000
     31 H1           4.9430     1.6880    -1.4680 hc         1 CQ3       0.056200
     32 H1A          5.6360     0.4290    -2.4500 hc         1 CQ3       0.056200
     33 HN1          2.2440     0.7770     0.4690 hn         1 CQ3       0.516000
     34 H4           4.5250    -3.1100    -0.4700 ha         1 CQ3       0.127000
     35 HN4         -2.7830    -1.5190     0.1820 hn         1 CQ3       0.502000
     36 H5           3.2650    -4.8510     0.7420 ha         1 CQ3       0.119000
     37 H6           1.1130    -4.2720     1.8330 ha         1 CQ3       0.116000
     38 H7           0.2510    -1.9800     1.7300 ha         1 CQ3       0.138000
     39 H11         -1.4660     3.5140     0.3290 h4         1 CQ3       0.031100
     40 H13         -4.6350     0.7150     0.6100 h1         1 CQ3       0.080700
     41 H14         -5.0660    -2.2500     0.0600 hc         1 CQ3       0.057950
     42 H14A        -5.2240    -1.4370     1.6160 hc         1 CQ3       0.057950
     43 H15         -7.0930    -0.0870     0.8070 h1         1 CQ3       0.047950
     44 H15A        -7.4410    -1.7920     0.5080 h1         1 CQ3       0.047950
     45 H16         -6.4440     0.4620    -2.6880 h1         1 CQ3       0.047950
     46 H16A        -6.4930     1.2720    -1.1200 h1         1 CQ3       0.047950
     47 H17         -4.1580     0.9540    -1.7820 hc         1 CQ3       0.057950
     48 H17A        -4.4090    -0.7720    -2.0370 hc         1 CQ3       0.057950
@<TRIPOS>BOND
     1     1     5 1   
     2     1    27 1   
     3     1    28 1   
     4     1    29 1   
     5     2     8 1   
     6     2    10 1   
     7     2    30 1   
     8     3     8 2   
     9     4    19 1   
    10     5     8 1   
    11     5    31 1   
    12     5    32 1   
    13     6    17 1   
    14     6    18 1   
    15     6    33 1   
    16     7    24 1   
    17     7    25 1   
    18     9    20 ar  
    19     9    21 ar  
    20    10    12 ar  
    21    10    17 ar  
    22    11    18 ar  
    23    11    21 ar  
    24    12    14 ar  
    25    12    34 1   
    26    13    21 1   
    27    13    22 1   
    28    13    35 1   
    29    14    15 ar  
    30    14    36 1   
    31    15    16 ar  
    32    15    37 1   
    33    16    17 ar  
    34    16    38 1   
    35    18    19 ar  
    36    19    20 ar  
    37    20    39 1   
    38    22    23 1   
    39    22    26 1   
    40    22    40 1   
    41    23    24 1   
    42    23    41 1   
    43    23    42 1   
    44    24    43 1   
    45    24    44 1   
    46    25    26 1   
    47    25    45 1   
    48    25    46 1   
    49    26    47 1   
    50    26    48 1   
@<TRIPOS>SUBSTRUCTURE
     1 CQ3         1 TEMP              0 ****  ****    0 ROOT
