@<TRIPOS>MOLECULE
CQ6
   44    46     1     0     0
SMALL
abcg2


@<TRIPOS>ATOM
      1 C          -11.0440    11.8490    42.8010 c3         1 CQ6      -0.059100
      2 N          -13.5540    13.4740    39.9560 n3         1 CQ6      -0.761500
      3 O          -11.2540    12.5950    39.6790 o          1 CQ6      -0.538500
      4 S          -12.0990    13.2340    40.6640 s6         1 CQ6       1.229100
      5 C1         -12.3340    12.0970    42.0300 c3         1 CQ6      -0.341400
      6 N1         -17.9230    12.0250    41.9770 nb         1 CQ6      -0.238000
      7 O1         -11.6800    14.5040    41.2170 o          1 CQ6      -0.538500
      8 C2         -14.0950    12.5090    38.9870 c6         1 CQ6       0.209800
      9 N2         -16.5830    14.0000    41.9640 nb         1 CQ6      -0.248000
     10 O2         -18.8220    16.9970    46.0140 os         1 CQ6      -0.457000
     11 C3         -14.9890    11.4700    39.6580 c6         1 CQ6      -0.037100
     12 N3         -18.5570    13.8830    43.1750 nu         1 CQ6      -0.915100
     13 C4         -15.9330    12.1170    40.6370 ca         1 CQ6      -0.256300
     14 C5         -17.0660    11.4710    41.1320 ca         1 CQ6       0.161900
     15 C6         -17.6540    13.2960    42.3560 ca         1 CQ6       0.386900
     16 C7         -15.7410    13.4100    41.1140 ca         1 CQ6       0.134300
     17 C8         -14.5700    14.2490    40.6680 c6         1 CQ6       0.149500
     18 C9         -18.3830    15.1820    43.8020 c6         1 CQ6       0.242500
     19 C10        -17.5790    15.1020    45.1050 c6         1 CQ6      -0.128400
     20 C11        -17.5170    16.4680    45.7750 c6         1 CQ6       0.156100
     21 C12        -19.5590    17.1510    44.8020 c6         1 CQ6       0.156100
     22 C13        -19.7410    15.8240    44.0750 c6         1 CQ6      -0.128400
     23 H          -11.2480    11.1510    43.6150 hc         1 CQ6       0.050700
     24 HA         -10.2800    11.4110    42.1600 hc         1 CQ6       0.050700
     25 HB         -10.6580    12.7730    43.2300 hc         1 CQ6       0.050700
     26 H1         -12.7250    11.1810    41.5880 h1         1 CQ6       0.087700
     27 H1A        -13.1050    12.5410    42.6600 h1         1 CQ6       0.087700
     28 H2         -14.6720    13.0940    38.2670 h1         1 CQ6       0.077700
     29 H2A        -13.2700    12.0440    38.4570 h1         1 CQ6       0.077700
     30 H3         -15.5530    10.9350    38.8910 hc         1 CQ6       0.056700
     31 H3A        -14.3710    10.7230    40.1640 hc         1 CQ6       0.056700
     32 HN3        -19.2770    13.2770    43.5380 hn         1 CQ6       0.503000
     33 H5         -17.2860    10.4540    40.8200 h4         1 CQ6       0.023100
     34 H8         -14.1260    14.7410    41.5310 h1         1 CQ6       0.091700
     35 H8A        -14.9390    15.0390    40.0050 h1         1 CQ6       0.091700
     36 H9         -17.8360    15.8070    43.0960 h1         1 CQ6       0.081700
     37 H10        -18.0600    14.3860    45.7780 hc         1 CQ6       0.057700
     38 H10A       -16.5670    14.7450    44.9010 hc         1 CQ6       0.057700
     39 H11        -16.9520    17.1700    45.1460 h1         1 CQ6       0.050200
     40 H11A       -17.0280    16.4080    46.7460 h1         1 CQ6       0.050200
     41 H12        -20.5220    17.5790    45.0800 h1         1 CQ6       0.050200
     42 H12A       -19.0390    17.8660    44.1500 h1         1 CQ6       0.050200
     43 H13        -20.2770    15.9910    43.1370 hc         1 CQ6       0.057700
     44 H13A       -20.3470    15.1530    44.6920 hc         1 CQ6       0.057700
@<TRIPOS>BOND
     1     1     5 1   
     2     1    23 1   
     3     1    24 1   
     4     1    25 1   
     5     2     4 1   
     6     2     8 1   
     7     2    17 1   
     8     3     4 2   
     9     4     5 1   
    10     4     7 2   
    11     5    26 1   
    12     5    27 1   
    13     6    14 ar  
    14     6    15 ar  
    15     8    11 1   
    16     8    28 1   
    17     8    29 1   
    18     9    15 ar  
    19     9    16 ar  
    20    10    20 1   
    21    10    21 1   
    22    11    13 1   
    23    11    30 1   
    24    11    31 1   
    25    12    15 1   
    26    12    18 1   
    27    12    32 1   
    28    13    14 ar  
    29    13    16 ar  
    30    14    33 1   
    31    16    17 1   
    32    17    34 1   
    33    17    35 1   
    34    18    19 1   
    35    18    22 1   
    36    18    36 1   
    37    19    20 1   
    38    19    37 1   
    39    19    38 1   
    40    20    39 1   
    41    20    40 1   
    42    21    22 1   
    43    21    41 1   
    44    21    42 1   
    45    22    43 1   
    46    22    44 1   
@<TRIPOS>SUBSTRUCTURE
     1 CQ6         1 TEMP              0 ****  ****    0 ROOT
