@<TRIPOS>MOLECULE
CQ6
   44    46     1     0     0
SMALL
No Charge or Current Charge


@<TRIPOS>ATOM
      1 C          -11.9520    12.1390    43.3850 c3         1 CQ6      -0.059100
      2 N          -13.4160    13.5720    39.6770 n3         1 CQ6      -0.761500
      3 O          -11.5190    11.9150    40.1870 o          1 CQ6      -0.538500
      4 S          -12.1470    13.1090    40.7620 s6         1 CQ6       1.229100
      5 C1         -12.9510    12.6190    42.3060 c3         1 CQ6      -0.341400
      6 N1         -17.7310    11.9780    41.8760 nb         1 CQ6      -0.238000
      7 O1         -11.3360    14.3110    40.9810 o          1 CQ6      -0.538500
      8 C2         -13.9180    12.5350    38.7330 c6         1 CQ6       0.209800
      9 N2         -16.5140    14.0480    41.7080 nb         1 CQ6      -0.248000
     10 O2         -18.4510    16.7040    46.1740 os         1 CQ6      -0.457000
     11 C3         -14.8450    11.4970    39.4300 c6         1 CQ6      -0.037100
     12 N3         -18.3780    13.8120    43.1180 nu         1 CQ6      -0.915100
     13 C4         -15.8310    12.1390    40.4160 ca         1 CQ6      -0.256300
     14 C5         -16.8920    11.4140    40.9850 ca         1 CQ6       0.161900
     15 C6         -17.4970    13.2640    42.1940 ca         1 CQ6       0.386900
     16 C7         -15.6770    13.4810    40.8190 ca         1 CQ6       0.134300
     17 C8         -14.5480    14.3540    40.2530 c6         1 CQ6       0.149500
     18 C9         -18.2480    15.1280    43.7650 c6         1 CQ6       0.242500
     19 C10        -17.1700    15.0730    44.8760 c6         1 CQ6      -0.128400
     20 C11        -17.1380    16.4100    45.6510 c6         1 CQ6       0.156100
     21 C12        -19.4680    16.8560    45.1600 c6         1 CQ6       0.156100
     22 C13        -19.6130    15.5390    44.3640 c6         1 CQ6      -0.128400
     23 H          -12.4870    11.8560    44.3000 hc         1 CQ6       0.050700
     24 HA         -11.3880    11.2650    43.0370 hc         1 CQ6       0.050700
     25 HB         -11.2390    12.9330    43.6400 hc         1 CQ6       0.050700
     26 H1         -13.6510    11.8150    42.0570 h1         1 CQ6       0.087700
     27 H1A        -13.5050    13.4900    42.6690 h1         1 CQ6       0.087700
     28 H2         -14.5040    13.0250    37.9410 h1         1 CQ6       0.077700
     29 H2A        -13.0960    12.0150    38.2180 h1         1 CQ6       0.077700
     30 H3         -15.3920    10.9320    38.6640 hc         1 CQ6       0.056700
     31 H3A        -14.2290    10.7610    39.9640 hc         1 CQ6       0.056700
     32 HN3        -19.0960    13.1740    43.4580 hn         1 CQ6       0.503000
     33 H5         -17.0710    10.3700    40.7320 h4         1 CQ6       0.023100
     34 H8         -14.1960    15.0520    41.0280 h1         1 CQ6       0.091700
     35 H8A        -14.9940    14.9820    39.4670 h1         1 CQ6       0.091700
     36 H9         -17.9610    15.8940    43.0260 h1         1 CQ6       0.081700
     37 H10        -17.3830    14.2520    45.5730 hc         1 CQ6       0.057700
     38 H10A       -16.1810    14.8740    44.4430 hc         1 CQ6       0.057700
     39 H11        -16.8160    17.2290    44.9910 h1         1 CQ6       0.050200
     40 H11A       -16.4260    16.3430    46.4860 h1         1 CQ6       0.050200
     41 H12        -20.4220    17.1110    45.6430 h1         1 CQ6       0.050200
     42 H12A       -19.1930    17.6840    44.4890 h1         1 CQ6       0.050200
     43 H13        -20.3540    15.6680    43.5640 hc         1 CQ6       0.057700
     44 H13A       -19.9930    14.7540    45.0310 hc         1 CQ6       0.057700
@<TRIPOS>BOND
     1     1     5 1   
     2     1    23 1   
     3     1    24 1   
     4     1    25 1   
     5     2     4 1   
     6     2     8 1   
     7     2    17 1   
     8     3     4 2   
     9     4     5 1   
    10     4     7 2   
    11     5    26 1   
    12     5    27 1   
    13     6    14 ar  
    14     6    15 ar  
    15     8    11 1   
    16     8    28 1   
    17     8    29 1   
    18     9    15 ar  
    19     9    16 ar  
    20    10    20 1   
    21    10    21 1   
    22    11    13 1   
    23    11    30 1   
    24    11    31 1   
    25    12    15 1   
    26    12    18 1   
    27    12    32 1   
    28    13    14 ar  
    29    13    16 ar  
    30    14    33 1   
    31    16    17 1   
    32    17    34 1   
    33    17    35 1   
    34    18    19 1   
    35    18    22 1   
    36    18    36 1   
    37    19    20 1   
    38    19    37 1   
    39    19    38 1   
    40    20    39 1   
    41    20    40 1   
    42    21    22 1   
    43    21    41 1   
    44    21    42 1   
    45    22    43 1   
    46    22    44 1   
@<TRIPOS>SUBSTRUCTURE
     1 CQ6         1 TEMP              0 ****  ****    0 ROOT
