@<TRIPOS>MOLECULE
CQ7
   66    71     1     0     0
SMALL
abcg2


@<TRIPOS>ATOM
      1 C1           9.6050     1.9700    -0.7960 c3         1 CQ7      -0.107400
      2 C2           8.2540     1.6250    -0.3070 cc         1 CQ7       0.537600
      3 C3           6.5490     0.8530     0.6790 ca         1 CQ7       0.055400
      4 C4           5.6230     0.1890     1.4740 ca         1 CQ7      -0.053000
      5 C5           4.2840     0.4800     1.2760 ca         1 CQ7      -0.101000
      6 C6           6.1070     1.7670    -0.2670 ca         1 CQ7       0.027100
      7 N1           7.9310     0.7950     0.6190 nd         1 CQ7      -0.573100
      8 N2           0.5440     2.9230    -0.0710 na         1 CQ7      -0.312400
      9 N3          -0.2150    -0.9880     0.0950 nb         1 CQ7      -0.356000
     10 O1           7.2060     2.2550    -0.8950 os         1 CQ7      -0.288700
     11 C7           4.7810     2.0680    -0.4930 ca         1 CQ7      -0.093000
     12 C8           3.8480     1.4050     0.3080 ca         1 CQ7       0.008200
     13 C9           2.4240     1.7180     0.1590 cc         1 CQ7      -0.026400
     14 C10          1.9110     2.9790     0.0250 cd         1 CQ7      -0.176100
     15 C11          0.1430     1.6360    -0.0020 ca         1 CQ7       0.174500
     16 C12          1.2870     0.8400     0.1410 ca         1 CQ7      -0.245800
     17 C13          1.0160    -0.5390     0.1540 ca         1 CQ7       0.452300
     18 C14          1.8000    -2.7870     0.2810 c5         1 CQ7       0.175300
     19 C15          3.0870    -3.4820     0.6970 c5         1 CQ7      -0.093900
     20 O2           2.0320    -1.3780     0.2230 os         1 CQ7      -0.445300
     21 C28         -5.4070    -3.4130    -0.1350 c3         1 CQ7       0.153900
     22 C21         -4.7870    -1.1150    -0.1770 ca         1 CQ7       0.071100
     23 C22         -6.0950    -0.6870    -0.2690 ca         1 CQ7      -0.116000
     24 C23         -6.4010     0.6770    -0.3080 ca         1 CQ7      -0.150600
     25 C26         -7.8380     1.0610    -0.4140 c          1 CQ7       0.613700
     26 O3          -8.6850     0.2610    -0.7990 o          1 CQ7      -0.611100
     27 N5          -8.1550     2.3180    -0.0680 ns         1 CQ7      -0.504900
     28 C27         -9.5080     2.8140    -0.1420 c3         1 CQ7       0.095300
     29 C24         -5.3620     1.5930    -0.2810 ca         1 CQ7      -0.089000
     30 C25         -4.0400     1.1740    -0.2010 ca         1 CQ7      -0.135000
     31 C20         -3.7230    -0.1800    -0.1420 ca         1 CQ7       0.323000
     32 C19         -1.2250    -0.1040    -0.0070 ca         1 CQ7       0.440900
     33 N6          -1.1170     1.2060    -0.0740 nb         1 CQ7      -0.279000
     34 C16          2.8510    -4.9440     0.2940 c5         1 CQ7      -0.078400
     35 C17          1.7800    -4.9080    -0.8260 c5         1 CQ7      -0.078400
     36 C18          1.4680    -3.4250    -1.0620 c5         1 CQ7      -0.093900
     37 H1           9.6990     1.7600    -1.8620 hc         1 CQ7       0.067033
     38 H2           9.8120     3.0310    -0.6490 hc         1 CQ7       0.067033
     39 H3          10.3490     1.3900    -0.2580 hc         1 CQ7       0.067033
     40 H4           5.9320    -0.5240     2.2260 ha         1 CQ7       0.132000
     41 H5           3.5500    -0.0110     1.8990 ha         1 CQ7       0.126000
     42 H6          -0.0660     3.7190    -0.1710 hn         1 CQ7       0.363000
     43 H7           4.4730     2.7660    -1.2600 ha         1 CQ7       0.132000
     44 H8           2.4230     3.9280     0.0160 h4         1 CQ7       0.222000
     45 H9           1.0050    -2.9920     1.0040 h1         1 CQ7       0.067700
     46 H10          3.9210    -3.0560     0.1330 hc         1 CQ7       0.059200
     47 H11          3.3110    -3.3600     1.7580 hc         1 CQ7       0.059200
     48 H12         -4.8860    -4.3640    -0.0580 h1         1 CQ7       0.044367
     49 H13         -6.0940    -3.3160     0.7090 h1         1 CQ7       0.044367
     50 H14         -5.9800    -3.4000    -1.0640 h1         1 CQ7       0.044367
     51 H15         -6.9040    -1.4020    -0.3050 ha         1 CQ7       0.141000
     52 H16         -7.4640     2.9060     0.3630 hn         1 CQ7       0.316500
     53 H17         -9.9170     2.6980    -1.1450 h1         1 CQ7       0.039367
     54 H18        -10.1720     2.3050     0.5580 h1         1 CQ7       0.039367
     55 H19         -9.4990     3.8720     0.1030 h1         1 CQ7       0.039367
     56 H20         -5.5450     2.6580    -0.3470 ha         1 CQ7       0.110000
     57 H21         -3.2510     1.9070    -0.1920 ha         1 CQ7       0.153000
     58 H22         -2.3960    -1.7140    -0.0150 hn         1 CQ7       0.530000
     59 H23          3.7760    -5.4160    -0.0360 hc         1 CQ7       0.045200
     60 H24          2.4920    -5.5230     1.1460 hc         1 CQ7       0.045200
     61 H25          2.1210    -5.3940    -1.7400 hc         1 CQ7       0.045200
     62 H26          0.8810    -5.4370    -0.5070 hc         1 CQ7       0.045200
     63 H27          0.4410    -3.2470    -1.3780 hc         1 CQ7       0.059200
     64 H28          2.1300    -3.0070    -1.8250 hc         1 CQ7       0.059200
     65 N4          -2.4510    -0.7080    -0.0530 nu         1 CQ7      -0.919900
     66 O4          -4.4110    -2.4090    -0.1180 os         1 CQ7      -0.365100
@<TRIPOS>BOND
     1     1     2 1   
     2     1    37 1   
     3     1    38 1   
     4     1    39 1   
     5     2     7 2   
     6     2    10 1   
     7     3     4 ar  
     8     3     6 ar  
     9     3     7 1   
    10     4     5 ar  
    11     4    40 1   
    12     5    12 ar  
    13     5    41 1   
    14     6    10 1   
    15     6    11 ar  
    16     8    14 1   
    17     8    15 1   
    18     8    42 1   
    19     9    17 ar  
    20     9    32 ar  
    21    11    12 ar  
    22    11    43 1   
    23    12    13 1   
    24    13    14 2   
    25    13    16 1   
    26    14    44 1   
    27    15    16 ar  
    28    15    33 ar  
    29    16    17 ar  
    30    17    20 1   
    31    18    19 1   
    32    18    20 1   
    33    18    36 1   
    34    18    45 1   
    35    19    34 1   
    36    19    46 1   
    37    19    47 1   
    38    21    48 1   
    39    21    49 1   
    40    21    50 1   
    41    21    66 1   
    42    22    23 ar  
    43    22    31 ar  
    44    22    66 1   
    45    23    24 ar  
    46    23    51 1   
    47    24    25 1   
    48    24    29 ar  
    49    25    26 2   
    50    25    27 1   
    51    27    28 1   
    52    27    52 1   
    53    28    53 1   
    54    28    54 1   
    55    28    55 1   
    56    29    30 ar  
    57    29    56 1   
    58    30    31 ar  
    59    30    57 1   
    60    31    65 1   
    61    32    33 ar  
    62    32    65 1   
    63    34    35 1   
    64    34    59 1   
    65    34    60 1   
    66    35    36 1   
    67    35    61 1   
    68    35    62 1   
    69    36    63 1   
    70    36    64 1   
    71    58    65 1   
@<TRIPOS>SUBSTRUCTURE
     1 CQ7         1 TEMP              0 ****  ****    0 ROOT
