@<TRIPOS>MOLECULE
CQ7
   66    71     1     0     0
SMALL
No Charge or Current Charge


@<TRIPOS>ATOM
      1 C1           9.3520     0.4380    -1.1570 c3         1 CQ7      -0.107400
      2 C2           7.9790     0.5240    -0.5660 cc         1 CQ7       0.537600
      3 C3           6.2950     0.4550     0.6940 ca         1 CQ7       0.055400
      4 C4           5.3760     0.3010     1.7390 ca         1 CQ7      -0.053000
      5 C5           4.0270     0.6390     1.4960 ca         1 CQ7      -0.101000
      6 C6           5.8990     0.9230    -0.5250 ca         1 CQ7       0.027100
      7 N1           7.6460     0.1890     0.6930 nd         1 CQ7      -0.573100
      8 N2           0.4340     2.7000    -0.6650 na         1 CQ7      -0.312400
      9 N3          -0.4860    -1.0260     0.8420 nb         1 CQ7      -0.356000
     10 O1           6.9500     0.9870    -1.3780 os         1 CQ7      -0.288700
     11 C7           4.5720     1.2690    -0.8040 ca         1 CQ7      -0.093000
     12 C8           3.6150     1.1150     0.2250 ca         1 CQ7       0.008200
     13 C9           2.2160     1.4520    -0.0250 cc         1 CQ7      -0.026400
     14 C10          1.8500     2.6630    -0.5840 cd         1 CQ7      -0.176100
     15 C11         -0.0430     1.4960    -0.1640 ca         1 CQ7       0.174500
     16 C12          1.0130     0.7170     0.2340 ca         1 CQ7      -0.245800
     17 C13          0.7830    -0.5820     0.7140 ca         1 CQ7       0.452300
     18 C14          1.9010    -2.5800     0.3200 c5         1 CQ7       0.175300
     19 C15          2.9910    -3.4890     0.9810 c5         1 CQ7      -0.093900
     20 O2           1.8430    -1.3650     1.1180 os         1 CQ7      -0.445300
     21 C28         -5.7010    -3.6000    -0.0440 c3         1 CQ7       0.153900
     22 C21         -5.0690    -1.2060     0.1550 ca         1 CQ7       0.071100
     23 C22         -6.4000    -0.7740    -0.0510 ca         1 CQ7      -0.116000
     24 C23         -6.7290     0.6020    -0.0420 ca         1 CQ7      -0.150600
     25 C26         -8.1700     1.0260    -0.2670 c          1 CQ7       0.613700
     26 O3          -9.0690     0.2160    -0.4550 o          1 CQ7      -0.611100
     27 N5          -8.4290     2.3790    -0.2510 ns         1 CQ7      -0.504900
     28 C27         -9.7540     2.9710    -0.4490 c3         1 CQ7       0.095300
     29 C24         -5.6960     1.5400     0.1880 ca         1 CQ7      -0.089000
     30 C25         -4.3720     1.1140     0.3910 ca         1 CQ7      -0.135000
     31 C20         -4.0400    -0.2530     0.3620 ca         1 CQ7       0.323000
     32 C19         -1.4580    -0.1840     0.4560 ca         1 CQ7       0.440900
     33 N6          -1.3050     1.0520    -0.0610 nb         1 CQ7      -0.279000
     34 C16          3.9350    -3.8660    -0.1920 c5         1 CQ7      -0.078400
     35 C17          3.9860    -2.5290    -0.9620 c5         1 CQ7      -0.078400
     36 C18          2.4720    -2.2370    -1.1010 c5         1 CQ7      -0.093900
     37 H1           9.3640    -0.2650    -1.9970 hc         1 CQ7       0.067033
     38 H2           9.6740     1.4180    -1.5240 hc         1 CQ7       0.067033
     39 H3          10.0790     0.0950    -0.4120 hc         1 CQ7       0.067033
     40 H4           5.6940    -0.0700     2.7110 ha         1 CQ7       0.132000
     41 H5           3.2970     0.5320     2.2940 ha         1 CQ7       0.126000
     42 H6          -0.1360     3.4590    -1.0250 hn         1 CQ7       0.363000
     43 H7           4.2880     1.6300    -1.7880 ha         1 CQ7       0.132000
     44 H8           2.4770     3.4900    -0.9090 h4         1 CQ7       0.222000
     45 H9           0.9230    -3.0790     0.2770 h1         1 CQ7       0.067700
     46 H10          3.5430    -2.9550     1.7640 hc         1 CQ7       0.059200
     47 H11          2.5520    -4.3760     1.4500 hc         1 CQ7       0.059200
     48 H12         -5.2160    -4.5830     0.0000 h1         1 CQ7       0.044367
     49 H13         -6.4780    -3.5700     0.7310 h1         1 CQ7       0.044367
     50 H14         -6.1790    -3.5030    -1.0270 h1         1 CQ7       0.044367
     51 H15         -7.1920    -1.4980    -0.2170 ha         1 CQ7       0.141000
     52 H16         -7.6430     2.9960    -0.0920 hn         1 CQ7       0.316500
     53 H17        -10.1410     2.6890    -1.4360 h1         1 CQ7       0.039367
     54 H18        -10.4400     2.6110     0.3290 h1         1 CQ7       0.039367
     55 H19         -9.6800     4.0640    -0.3870 h1         1 CQ7       0.039367
     56 H20         -5.8990     2.6070     0.2190 ha         1 CQ7       0.110000
     57 H21         -3.6130     1.8610     0.5890 ha         1 CQ7       0.153000
     58 H22         -2.7060    -1.7200     0.7330 hn         1 CQ7       0.530000
     59 H23          4.9230    -4.1890     0.1560 hc         1 CQ7       0.045200
     60 H24          3.5210    -4.6760    -0.8060 hc         1 CQ7       0.045200
     61 H25          4.5050    -1.7490    -0.3920 hc         1 CQ7       0.045200
     62 H26          4.4870    -2.6200    -1.9330 hc         1 CQ7       0.045200
     63 H27          2.0180    -2.8850    -1.8600 hc         1 CQ7       0.059200
     64 H28          2.2810    -1.2070    -1.4210 hc         1 CQ7       0.059200
     65 N4          -2.7290    -0.7140     0.5720 nu         1 CQ7      -0.919900
     66 O4          -4.7310    -2.5560     0.1600 os         1 CQ7      -0.365100
@<TRIPOS>BOND
     1     1     2 1   
     2     1    37 1   
     3     1    38 1   
     4     1    39 1   
     5     2     7 2   
     6     2    10 1   
     7     3     4 ar  
     8     3     6 ar  
     9     3     7 1   
    10     4     5 ar  
    11     4    40 1   
    12     5    12 ar  
    13     5    41 1   
    14     6    10 1   
    15     6    11 ar  
    16     8    14 1   
    17     8    15 1   
    18     8    42 1   
    19     9    17 ar  
    20     9    32 ar  
    21    11    12 ar  
    22    11    43 1   
    23    12    13 1   
    24    13    14 2   
    25    13    16 1   
    26    14    44 1   
    27    15    16 ar  
    28    15    33 ar  
    29    16    17 ar  
    30    17    20 1   
    31    18    19 1   
    32    18    20 1   
    33    18    36 1   
    34    18    45 1   
    35    19    34 1   
    36    19    46 1   
    37    19    47 1   
    38    21    48 1   
    39    21    49 1   
    40    21    50 1   
    41    21    66 1   
    42    22    23 ar  
    43    22    31 ar  
    44    22    66 1   
    45    23    24 ar  
    46    23    51 1   
    47    24    25 1   
    48    24    29 ar  
    49    25    26 2   
    50    25    27 1   
    51    27    28 1   
    52    27    52 1   
    53    28    53 1   
    54    28    54 1   
    55    28    55 1   
    56    29    30 ar  
    57    29    56 1   
    58    30    31 ar  
    59    30    57 1   
    60    31    65 1   
    61    32    33 ar  
    62    32    65 1   
    63    34    35 1   
    64    34    59 1   
    65    34    60 1   
    66    35    36 1   
    67    35    61 1   
    68    35    62 1   
    69    36    63 1   
    70    36    64 1   
    71    58    65 1   
@<TRIPOS>SUBSTRUCTURE
     1 CQ7         1 TEMP              0 ****  ****    0 ROOT
