@<TRIPOS>MOLECULE
CQ8
   46    48     1     0     0
SMALL
No Charge or Current Charge


@<TRIPOS>ATOM
      1 Cl          -4.3670    -1.6340     0.4650 cl         1 CQ8      -0.201000
      2 C12         -2.6070    -1.7680     0.2960 ca         1 CQ8      -0.057000
      3 C8          -1.7520    -0.6970     0.6020 ca         1 CQ8       0.423000
      4 N1          -2.2620     0.5200     1.0570 nu         1 CQ8      -0.981000
      5 C7          -1.7060     1.7910     1.2150 ca         1 CQ8       0.348000
      6 C6          -1.9970     2.4540     2.4200 ca         1 CQ8      -0.161000
      7 C5          -1.4320     3.7040     2.7110 ca         1 CQ8      -0.067000
      8 C4          -0.5680     4.3060     1.7880 ca         1 CQ8      -0.137000
      9 C3          -0.2850     3.6670     0.5710 ca         1 CQ8      -0.072000
     10 C2          -0.8590     2.4090     0.2600 ca         1 CQ8      -0.179600
     11 C1          -0.5880     1.8000    -1.0930 c          1 CQ8       0.614700
     12 O           -1.4350     1.2230    -1.7610 o          1 CQ8      -0.575100
     13 N            0.6830     2.0120    -1.5850 ns         1 CQ8      -0.509900
     14 C            1.1560     1.5340    -2.8850 c3         1 CQ8       0.094300
     15 C11         -2.0270    -2.9640    -0.1590 ca         1 CQ8       0.433900
     16 N2          -0.6940    -3.1330    -0.3130 nb         1 CQ8      -0.770000
     17 C10          0.0810    -2.1030    -0.0030 ca         1 CQ8       0.651900
     18 C9          -0.3770    -0.8820     0.4760 ca         1 CQ8      -0.311000
     19 N3           1.3910    -2.4010    -0.2070 nu         1 CQ8      -0.931100
     20 C13          2.4350    -1.4150    -0.4900 c6         1 CQ8       0.242500
     21 C17          3.3960    -1.9730    -1.5620 c6         1 CQ8      -0.134900
     22 C16          4.5680    -0.9900    -1.7830 c6         1 CQ8       0.157100
     23 O1           5.2350    -0.7370    -0.5280 os         1 CQ8      -0.446000
     24 C15          4.3920    -0.1320     0.4760 c6         1 CQ8       0.157100
     25 C14          3.2110    -1.0730     0.8030 c6         1 CQ8      -0.134900
     26 H11         -2.6530    -3.8180    -0.4120 h4         1 CQ8       0.028100
     27 H1          -3.2160     0.4390     1.4100 hn         1 CQ8       0.512000
     28 H9           0.3170    -0.0970     0.7420 ha         1 CQ8       0.124000
     29 H6          -2.6480     1.9840     3.1520 ha         1 CQ8       0.120000
     30 H5          -1.6580     4.2010     3.6520 ha         1 CQ8       0.118000
     31 H4          -0.1290     5.2770     2.0080 ha         1 CQ8       0.120000
     32 H3           0.3570     4.1780    -0.1450 ha         1 CQ8       0.116000
     33 H            1.3270     2.5130    -0.9850 hn         1 CQ8       0.311500
     34 HC1          0.5990     2.0340    -3.6880 h1         1 CQ8       0.041700
     35 HC2          2.2250     1.7580    -2.9920 h1         1 CQ8       0.041700
     36 HC3          1.0060     0.4490    -2.9580 h1         1 CQ8       0.041700
     37 HA           1.4880    -3.3310    -0.6010 hn         1 CQ8       0.497000
     38 H13          1.9890    -0.4920    -0.8930 h1         1 CQ8       0.053700
     39 H171         3.7940    -2.9480    -1.2520 hc         1 CQ8       0.059950
     40 H172         2.8610    -2.1300    -2.5080 hc         1 CQ8       0.059950
     41 H141         2.5480    -0.5960     1.5360 hc         1 CQ8       0.059950
     42 H142         3.5930    -1.9900     1.2700 hc         1 CQ8       0.059950
     43 H161         5.2900    -1.4170    -2.4930 h1         1 CQ8       0.045700
     44 H162         4.2000    -0.0390    -2.1980 h1         1 CQ8       0.045700
     45 H151         4.9880     0.0520     1.3820 h1         1 CQ8       0.045700
     46 H152         4.0220     0.8360     0.1070 h1         1 CQ8       0.045700
@<TRIPOS>BOND
     1     1     2 1   
     2     2     3 ar  
     3     2    15 ar  
     4     3     4 1   
     5     3    18 ar  
     6     4     5 1   
     7     4    27 1   
     8     5     6 ar  
     9     5    10 ar  
    10     6     7 ar  
    11     6    29 1   
    12     7     8 ar  
    13     7    30 1   
    14     8     9 ar  
    15     8    31 1   
    16     9    10 ar  
    17     9    32 1   
    18    10    11 1   
    19    11    12 2   
    20    11    13 1   
    21    13    14 1   
    22    13    33 1   
    23    14    34 1   
    24    14    35 1   
    25    14    36 1   
    26    15    16 ar  
    27    15    26 1   
    28    16    17 ar  
    29    17    18 ar  
    30    17    19 1   
    31    18    28 1   
    32    19    20 1   
    33    19    37 1   
    34    20    21 1   
    35    20    25 1   
    36    20    38 1   
    37    21    22 1   
    38    21    39 1   
    39    21    40 1   
    40    22    23 1   
    41    22    43 1   
    42    22    44 1   
    43    23    24 1   
    44    24    25 1   
    45    24    45 1   
    46    24    46 1   
    47    25    41 1   
    48    25    42 1   
@<TRIPOS>SUBSTRUCTURE
     1 CQ8         1 TEMP              0 ****  ****    0 ROOT
