@<TRIPOS>MOLECULE
CQ8
   46    48     1     0     0
SMALL
abcg2


@<TRIPOS>ATOM
      1 CL          -4.2120    -1.5760     0.7050 cl         1 CQ8      -0.201000
      2 C12         -2.5230    -1.6810     0.3250 ca         1 CQ8      -0.057000
      3 C8          -1.6610    -0.6050     0.5970 ca         1 CQ8       0.423000
      4 N1          -2.1380     0.5340     1.1740 nu         1 CQ8      -0.981000
      5 C7          -1.4870     1.7660     1.2520 ca         1 CQ8       0.348000
      6 C6          -1.5260     2.4520     2.4650 ca         1 CQ8      -0.161000
      7 C5          -0.9270     3.6930     2.6010 ca         1 CQ8      -0.067000
      8 C4          -0.2480     4.2590     1.5320 ca         1 CQ8      -0.137000
      9 C3          -0.2010     3.5810     0.3240 ca         1 CQ8      -0.072000
     10 C2          -0.8280     2.3480     0.1590 ca         1 CQ8      -0.179600
     11 C1          -0.8790     1.7360    -1.2080 c          1 CQ8       0.614700
     12 O           -1.9220     1.3340    -1.6990 o          1 CQ8      -0.575100
     13 N            0.2970     1.6920    -1.8540 ns         1 CQ8      -0.509900
     14 C            0.4330     1.1160    -3.1710 c3         1 CQ8       0.094300
     15 C11         -2.0140    -2.8190    -0.2620 ca         1 CQ8       0.433900
     16 N2          -0.7470    -2.9660    -0.6150 nb         1 CQ8      -0.770000
     17 C10          0.0950    -1.9560    -0.3610 ca         1 CQ8       0.651900
     18 C9          -0.3190    -0.7820     0.2820 ca         1 CQ8      -0.311000
     19 N3           1.3710    -2.1360    -0.7870 nu         1 CQ8      -0.931100
     20 C13          2.4720    -1.2500    -0.5050 c6         1 CQ8       0.242500
     21 C17          3.5810    -1.4360    -1.5330 c6         1 CQ8      -0.134900
     22 C16          4.7540    -0.5230    -1.2080 c6         1 CQ8       0.157100
     23 O1           5.2410    -0.7220     0.1000 os         1 CQ8      -0.446000
     24 C15          4.2490    -0.4940     1.0770 c6         1 CQ8       0.157100
     25 C14          3.0560    -1.4190     0.8990 c6         1 CQ8      -0.134900
     26 H11         -2.6760    -3.6530    -0.4690 h4         1 CQ8       0.028100
     27 H1          -2.9960     0.4560     1.6980 hn         1 CQ8       0.512000
     28 H9           0.3940    -0.0140     0.5400 ha         1 CQ8       0.124000
     29 H6          -2.0280     1.9960     3.3100 ha         1 CQ8       0.120000
     30 H5          -0.9760     4.2080     3.5510 ha         1 CQ8       0.118000
     31 H4           0.2320     5.2230     1.6320 ha         1 CQ8       0.120000
     32 H3           0.3020     4.0380    -0.5190 ha         1 CQ8       0.116000
     33 H            1.1270     2.0110    -1.3850 hn         1 CQ8       0.311500
     34 HC1         -0.2300     1.5970    -3.8890 h1         1 CQ8       0.041700
     35 HC2          1.4580     1.2580    -3.5040 h1         1 CQ8       0.041700
     36 HC3          0.2170     0.0460    -3.1630 h1         1 CQ8       0.041700
     37 HA           1.5970    -3.0770    -1.0710 hn         1 CQ8       0.497000
     38 H13          2.1040    -0.2220    -0.6030 h1         1 CQ8       0.053700
     39 H171         3.9140    -2.4790    -1.5330 hc         1 CQ8       0.059950
     40 H172         3.2140    -1.2100    -2.5370 hc         1 CQ8       0.059950
     41 H141         2.3070    -1.1990     1.6640 hc         1 CQ8       0.059950
     42 H142         3.3620    -2.4610     1.0400 hc         1 CQ8       0.059950
     43 H161         5.5830    -0.7110    -1.8910 h1         1 CQ8       0.045700
     44 H162         4.4480     0.5250    -1.3470 h1         1 CQ8       0.045700
     45 H151         4.7160    -0.6480     2.0510 h1         1 CQ8       0.045700
     46 H152         3.9070     0.5520     1.0390 h1         1 CQ8       0.045700
@<TRIPOS>BOND
     1     1     2 1   
     2     2     3 ar  
     3     2    15 ar  
     4     3     4 1   
     5     3    18 ar  
     6     4     5 1   
     7     4    27 1   
     8     5     6 ar  
     9     5    10 ar  
    10     6     7 ar  
    11     6    29 1   
    12     7     8 ar  
    13     7    30 1   
    14     8     9 ar  
    15     8    31 1   
    16     9    10 ar  
    17     9    32 1   
    18    10    11 1   
    19    11    12 2   
    20    11    13 1   
    21    13    14 1   
    22    13    33 1   
    23    14    34 1   
    24    14    35 1   
    25    14    36 1   
    26    15    16 ar  
    27    15    26 1   
    28    16    17 ar  
    29    17    18 ar  
    30    17    19 1   
    31    18    28 1   
    32    19    20 1   
    33    19    37 1   
    34    20    21 1   
    35    20    25 1   
    36    20    38 1   
    37    21    22 1   
    38    21    39 1   
    39    21    40 1   
    40    22    23 1   
    41    22    43 1   
    42    22    44 1   
    43    23    24 1   
    44    24    25 1   
    45    24    45 1   
    46    24    46 1   
    47    25    41 1   
    48    25    42 1   
@<TRIPOS>SUBSTRUCTURE
     1 CQ8         1 TEMP              0 ****  ****    0 ROOT
