@<TRIPOS>MOLECULE
CQ9
   36    39     1     0     0
SMALL
No Charge or Current Charge


@<TRIPOS>ATOM
      1 C1          -1.8960     3.1570    -0.1950 ca         1 CQ9      -0.136000
      2 C2          -1.1580     2.2470    -0.9660 ca         1 CQ9      -0.037000
      3 C3          -1.2370     0.8510    -0.7400 ca         1 CQ9      -0.165600
      4 C4          -0.4200    -0.0250    -1.6810 c          1 CQ9       0.594600
      5 O5          -0.1900     0.3490    -2.8240 o          1 CQ9      -0.536000
      6 N6           0.0580    -1.2710    -1.2400 n          1 CQ9      -0.395800
      7 C7          -0.0850    -1.7080     0.1420 cx         1 CQ9       0.168400
      8 C8           0.8300    -1.2100     1.2320 cx         1 CQ9       0.153600
      9 C9           1.8270    -0.1150     0.9600 ca         1 CQ9      -0.096300
     10 C10          1.4760     1.2240     1.2240 ca         1 CQ9      -0.083000
     11 C11          2.3830     2.2620     0.9540 ca         1 CQ9      -0.112000
     12 C12          3.6500     1.9700     0.4220 ca         1 CQ9      -0.096000
     13 C13          4.0080     0.6360     0.1610 ca         1 CQ9      -0.112000
     14 C14          3.1010    -0.4030     0.4280 ca         1 CQ9      -0.083000
     15 C15         -1.4880    -2.0590     0.5860 c          1 CQ9       0.582000
     16 O16         -1.8500    -3.1900     0.8930 o          1 CQ9      -0.500000
     17 N17         -2.3390    -0.9780     0.6200 ns         1 CQ9      -0.145000
     18 C18         -2.1110     0.3840     0.2940 ca         1 CQ9      -0.001000
     19 C19         -2.8600     1.3140     1.0410 ca         1 CQ9      -0.161000
     20 C20         -2.7500     2.6910     0.8090 ca         1 CQ9      -0.066000
     21 C23          0.8000    -2.1690    -2.1580 c3         1 CQ9       0.096300
     22 O35          1.0220    -2.5100     0.6290 op         1 CQ9      -0.382000
     23 H11         -1.8100     4.2250    -0.3840 ha         1 CQ9       0.124000
     24 H21         -0.5080     2.6380    -1.7470 ha         1 CQ9       0.139000
     25 H36          0.4740    -1.2380     2.2620 h1         1 CQ9       0.103700
     26 H101         0.4960     1.4620     1.6330 ha         1 CQ9       0.120500
     27 H111         2.1030     3.2940     1.1570 ha         1 CQ9       0.116500
     28 H121         4.3520     2.7740     0.2140 ha         1 CQ9       0.116000
     29 H131         4.9890     0.4080    -0.2510 ha         1 CQ9       0.116500
     30 H141         3.3870    -1.4310     0.2180 ha         1 CQ9       0.120500
     31 H171        -3.2680    -1.1820     0.9670 hn         1 CQ9       0.163000
     32 H191        -3.5350     0.9650     1.8210 ha         1 CQ9       0.120000
     33 H201        -3.3310     3.3950     1.4030 ha         1 CQ9       0.120000
     34 H231         0.3860    -2.1050    -3.1730 h1         1 CQ9       0.051367
     35 H232         1.8580    -1.8780    -2.1820 h1         1 CQ9       0.051367
     36 H233         0.7220    -3.2120    -1.8240 h1         1 CQ9       0.051367
@<TRIPOS>BOND
     1     1     2 ar  
     2     1    20 ar  
     3     1    23 1   
     4     2     3 ar  
     5     2    24 1   
     6     3     4 1   
     7     3    18 ar  
     8     4     5 2   
     9     4     6 1   
    10     6     7 1   
    11     6    21 1   
    12     7     8 1   
    13     7    15 1   
    14     7    22 1   
    15     8     9 1   
    16     8    22 1   
    17     8    25 1   
    18     9    10 ar  
    19     9    14 ar  
    20    10    11 ar  
    21    10    26 1   
    22    11    12 ar  
    23    11    27 1   
    24    12    13 ar  
    25    12    28 1   
    26    13    14 ar  
    27    13    29 1   
    28    14    30 1   
    29    15    16 2   
    30    15    17 1   
    31    17    18 1   
    32    17    31 1   
    33    18    19 ar  
    34    19    20 ar  
    35    19    32 1   
    36    20    33 1   
    37    21    34 1   
    38    21    35 1   
    39    21    36 1   
@<TRIPOS>SUBSTRUCTURE
     1 CQ9         1 TEMP              0 ****  ****    0 ROOT
