@<TRIPOS>MOLECULE
CQ9
   36    39     1     0     0
SMALL
abcg2


@<TRIPOS>ATOM
      1 C1          -1.6900     3.0440    -0.0530 ca         1 CQ9      -0.136000
      2 C2          -0.9200     2.1580    -0.7790 ca         1 CQ9      -0.037000
      3 C3          -1.1100     0.7780    -0.6850 ca         1 CQ9      -0.165600
      4 C4          -0.2970    -0.0660    -1.6070 c          1 CQ9       0.594600
      5 O5          -0.0260     0.3190    -2.7320 o          1 CQ9      -0.536000
      6 N6           0.1030    -1.2750    -1.1450 n          1 CQ9      -0.395800
      7 C7          -0.0820    -1.6110     0.2240 cx         1 CQ9       0.168400
      8 C8           0.7440    -0.9940     1.2790 cx         1 CQ9       0.153600
      9 C9           1.7650     0.0270     0.9490 ca         1 CQ9      -0.096300
     10 C10          1.5650     1.3250     1.4110 ca         1 CQ9      -0.083000
     11 C11          2.4710     2.3260     1.0970 ca         1 CQ9      -0.112000
     12 C12          3.5880     2.0350     0.3250 ca         1 CQ9      -0.096000
     13 C13          3.7960     0.7390    -0.1270 ca         1 CQ9      -0.112000
     14 C14          2.8880    -0.2640     0.1820 ca         1 CQ9      -0.083000
     15 C15         -1.4870    -2.0640     0.5180 c          1 CQ9       0.582000
     16 O16         -1.7700    -3.1950     0.8490 o          1 CQ9      -0.500000
     17 N17         -2.3930    -1.0750     0.3360 ns         1 CQ9      -0.145000
     18 C18         -2.1040     0.2900     0.1740 ca         1 CQ9      -0.001000
     19 C19         -2.8990     1.1920     0.8820 ca         1 CQ9      -0.161000
     20 C20         -2.6960     2.5540     0.7710 ca         1 CQ9      -0.066000
     21 C23          0.7280    -2.2470    -2.0250 c3         1 CQ9       0.096300
     22 O35          0.9400    -2.3240     0.8270 op         1 CQ9      -0.382000
     23 H11         -1.5140     4.1080    -0.1330 ha         1 CQ9       0.124000
     24 H21         -0.1470     2.5330    -1.4360 ha         1 CQ9       0.139000
     25 H36          0.3000    -0.9160     2.2700 h1         1 CQ9       0.103700
     26 H101         0.6930     1.5560     2.0100 ha         1 CQ9       0.120500
     27 H111         2.3040     3.3340     1.4540 ha         1 CQ9       0.116500
     28 H121         4.2980     2.8160     0.0800 ha         1 CQ9       0.116000
     29 H131         4.6690     0.5050    -0.7220 ha         1 CQ9       0.116500
     30 H141         3.0690    -1.2730    -0.1650 ha         1 CQ9       0.120500
     31 H171        -3.3490    -1.3040     0.5740 hn         1 CQ9       0.163000
     32 H191        -3.6770     0.8120     1.5320 ha         1 CQ9       0.120000
     33 H201        -3.3190     3.2330     1.3380 ha         1 CQ9       0.120000
     34 H231         0.3490    -2.1220    -3.0350 h1         1 CQ9       0.051367
     35 H232         1.8130    -2.1390    -2.0420 h1         1 CQ9       0.051367
     36 H233         0.4820    -3.2530    -1.6920 h1         1 CQ9       0.051367
@<TRIPOS>BOND
     1     1     2 ar  
     2     1    20 ar  
     3     1    23 1   
     4     2     3 ar  
     5     2    24 1   
     6     3     4 1   
     7     3    18 ar  
     8     4     5 2   
     9     4     6 1   
    10     6     7 1   
    11     6    21 1   
    12     7     8 1   
    13     7    15 1   
    14     7    22 1   
    15     8     9 1   
    16     8    22 1   
    17     8    25 1   
    18     9    10 ar  
    19     9    14 ar  
    20    10    11 ar  
    21    10    26 1   
    22    11    12 ar  
    23    11    27 1   
    24    12    13 ar  
    25    12    28 1   
    26    13    14 ar  
    27    13    29 1   
    28    14    30 1   
    29    15    16 2   
    30    15    17 1   
    31    17    18 1   
    32    17    31 1   
    33    18    19 ar  
    34    19    20 ar  
    35    19    32 1   
    36    20    33 1   
    37    21    34 1   
    38    21    35 1   
    39    21    36 1   
@<TRIPOS>SUBSTRUCTURE
     1 CQ9         1 TEMP              0 ****  ****    0 ROOT
