@<TRIPOS>MOLECULE
CQA
   47    49     1     0     0
SMALL
bcc


@<TRIPOS>ATOM
      1 C1           5.7210    -0.4100    -0.8940 ca         1 CQA       0.040400
      2 C2           4.7290    -0.5900    -1.8720 ca         1 CQA      -0.137000
      3 C3           3.4280    -0.3040    -1.5610 ca         1 CQA      -0.097000
      4 C4           3.0600     0.1600    -0.2810 ca         1 CQA      -0.198300
      5 C5           4.0760     0.3610     0.6870 ca         1 CQA       0.436600
      6 C6           5.4150     0.0570     0.3510 ca         1 CQA      -0.170300
      7 C7           1.7080     0.4550     0.0950 ca         1 CQA       0.246600
      8 C8           1.5030     0.9550     1.3690 ca         1 CQA      -0.352300
      9 C9           2.5960     1.1240     2.2230 ca         1 CQA       0.461200
     10 N1           3.8400     0.8420     1.9290 nb         1 CQA      -0.697000
     11 CL           7.3610    -0.7800    -1.2990 cl         1 CQA      -0.106400
     12 N2           0.6970     0.2410    -0.7890 nu         1 CQA      -0.650000
     13 C10         -0.6540     0.5780    -0.5800 ca         1 CQA       0.085600
     14 C11         -1.0370     1.8930    -0.3400 ca         1 CQA      -0.094000
     15 C12         -2.3690     2.2100    -0.1520 ca         1 CQA      -0.168000
     16 C13         -3.3520     1.2280    -0.2480 ca         1 CQA       0.172100
     17 C14         -2.9820    -0.0960    -0.5270 ca         1 CQA      -0.180300
     18 C15         -1.6350    -0.4030    -0.6600 ca         1 CQA      -0.109000
     19 O           -4.6390     1.5750    -0.0770 oh         1 CQA      -0.525100
     20 C16         -4.0370    -1.1520    -0.7280 c3         1 CQA       0.209100
     21 N3          -5.1400    -1.0190     0.2230 n3         1 CQA      -0.750600
     22 C17         -6.3290    -1.7470    -0.2150 c3         1 CQA       0.162300
     23 C18         -7.0740    -1.0570    -1.3460 c3         1 CQA      -0.095600
     24 C19         -4.7290    -1.3990     1.5760 c3         1 CQA       0.162300
     25 C20         -5.5760    -0.7420     2.6520 c3         1 CQA      -0.095600
     26 H2           4.9920    -0.9400    -2.8600 ha         1 CQA       0.147000
     27 H3           2.6950    -0.4280    -2.3460 ha         1 CQA       0.126000
     28 H6           6.1790     0.2090     1.1010 ha         1 CQA       0.164000
     29 H8           0.5140     1.1980     1.7280 ha         1 CQA       0.150000
     30 H9           2.4110     1.5100     3.2200 h4         1 CQA       0.015100
     31 HN2          0.8770    -0.3850    -1.5550 hn         1 CQA       0.438800
     32 H11         -0.2910     2.6770    -0.2950 ha         1 CQA       0.145000
     33 H12         -2.6590     3.2330     0.0530 ha         1 CQA       0.150000
     34 H15         -1.3430    -1.4300    -0.8460 ha         1 CQA       0.129000
     35 HO          -5.1380     0.7300     0.0750 ho         1 CQA       0.476000
     36 H161        -3.5860    -2.1530    -0.6870 h1         1 CQA       0.047200
     37 H162        -4.4420    -1.0480    -1.7380 h1         1 CQA       0.047200
     38 H171        -7.0050    -1.8340     0.6360 h1         1 CQA       0.039700
     39 H172        -6.0650    -2.7750    -0.5050 h1         1 CQA       0.039700
     40 H181        -6.4750    -0.9660    -2.2520 hc         1 CQA       0.041867
     41 H182        -7.9650    -1.6280    -1.6070 hc         1 CQA       0.041867
     42 H183        -7.3930    -0.0570    -1.0520 hc         1 CQA       0.041867
     43 H191        -4.7400    -2.4930     1.6880 h1         1 CQA       0.039700
     44 H192        -3.6910    -1.0900     1.7120 h1         1 CQA       0.039700
     45 H201        -5.4900     0.3430     2.6030 hc         1 CQA       0.041867
     46 H202        -6.6320    -0.9980     2.5690 hc         1 CQA       0.041867
     47 H203        -5.2430    -1.0610     3.6390 hc         1 CQA       0.041867
@<TRIPOS>BOND
     1     1     2 ar  
     2     1     6 ar  
     3     1    11 1   
     4     2     3 ar  
     5     2    26 1   
     6     3     4 ar  
     7     3    27 1   
     8     4     5 ar  
     9     4     7 ar  
    10     5     6 ar  
    11     5    10 ar  
    12     6    28 1   
    13     7     8 ar  
    14     7    12 1   
    15     8     9 ar  
    16     8    29 1   
    17     9    10 ar  
    18     9    30 1   
    19    12    13 1   
    20    12    31 1   
    21    13    14 ar  
    22    13    18 ar  
    23    14    15 ar  
    24    14    32 1   
    25    15    16 ar  
    26    15    33 1   
    27    16    17 ar  
    28    16    19 1   
    29    17    18 ar  
    30    17    20 1   
    31    18    34 1   
    32    19    35 1   
    33    20    21 1   
    34    20    36 1   
    35    20    37 1   
    36    21    22 1   
    37    21    24 1   
    38    22    23 1   
    39    22    38 1   
    40    22    39 1   
    41    23    40 1   
    42    23    41 1   
    43    23    42 1   
    44    24    25 1   
    45    24    43 1   
    46    24    44 1   
    47    25    45 1   
    48    25    46 1   
    49    25    47 1   
@<TRIPOS>SUBSTRUCTURE
     1 CQA         1 TEMP              0 ****  ****    0 ROOT
