@<TRIPOS>MOLECULE
CQA
   47    49     1     0     0
SMALL
No Charge or Current Charge


@<TRIPOS>ATOM
      1 C1           5.7100    -0.2670    -1.4130 ca         1 CQA       0.132000
      2 C2           4.5550    -0.7360    -2.0490 ca         1 CQA      -0.119000
      3 C3           3.2970    -0.5240    -1.4620 ca         1 CQA      -0.079000
      4 C4           3.1930     0.1600    -0.2250 ca         1 CQA      -0.133000
      5 C5           4.3660     0.6380     0.4140 ca         1 CQA       0.306000
      6 C6           5.6140     0.4150    -0.1920 ca         1 CQA      -0.087000
      7 C7           1.9470     0.3980     0.3960 ca         1 CQA       0.385000
      8 C8           1.9250     1.0740     1.6160 ca         1 CQA      -0.269000
      9 C9           3.1250     1.5110     2.1750 ca         1 CQA       0.395900
     10 N1           4.3210     1.3020     1.5900 nb         1 CQA      -0.697000
     11 Cl           7.2860    -0.5310    -2.1490 cl         1 CQA      -0.198000
     12 N2           0.7490    -0.0700    -0.1540 nu         1 CQA      -0.982000
     13 C10         -0.5800     0.3700    -0.0870 ca         1 CQA       0.224000
     14 C11         -0.9000     1.7100     0.2100 ca         1 CQA      -0.076000
     15 C12         -2.2430     2.1250     0.2530 ca         1 CQA      -0.150000
     16 C13         -3.2680     1.2050    -0.0080 ca         1 CQA       0.172100
     17 C14         -2.9680    -0.1340    -0.3230 ca         1 CQA      -0.180300
     18 C15         -1.6170    -0.5400    -0.3670 ca         1 CQA      -0.091000
     19 O           -4.5650     1.5920     0.0630 oh         1 CQA      -0.564100
     20 C16         -4.0740    -1.1360    -0.6660 c3         1 CQA       0.209100
     21 N3          -5.3140    -0.9530     0.1460 n3         1 CQA      -0.750600
     22 C17         -6.4980    -1.6490    -0.4310 c3         1 CQA       0.162300
     23 C18         -6.9450    -1.1270    -1.8120 c3         1 CQA      -0.095600
     24 C19         -5.0770    -1.3050     1.5760 c3         1 CQA       0.162300
     25 C20         -6.1830    -0.8430     2.5440 c3         1 CQA      -0.095600
     26 H2           4.6320    -1.2600    -2.9980 ha         1 CQA       0.129000
     27 H3           2.4160    -0.8890    -1.9830 ha         1 CQA       0.108000
     28 H6           6.5160     0.7770     0.2910 ha         1 CQA       0.146000
     29 H8           0.9960     1.2450     2.1480 ha         1 CQA       0.132000
     30 H9           3.1350     2.0390     3.1270 h4         1 CQA       0.015100
     31 HN2          0.8740    -0.9090    -0.7190 hn         1 CQA       0.494000
     32 H11         -0.1130     2.4350     0.3920 ha         1 CQA       0.127000
     33 H12         -2.4870     3.1580     0.4890 ha         1 CQA       0.132000
     34 H15         -1.3730    -1.5690    -0.6170 ha         1 CQA       0.111000
     35 HO          -5.0620     0.7210     0.0750 ho         1 CQA       0.515000
     36 H161        -3.6940    -2.1600    -0.5420 h1         1 CQA       0.047200
     37 H162        -4.2840    -1.0070    -1.7340 h1         1 CQA       0.047200
     38 H171        -7.3630    -1.5290     0.2330 h1         1 CQA       0.039700
     39 H172        -6.3040    -2.7280    -0.5070 h1         1 CQA       0.039700
     40 H181        -6.2310    -1.3970    -2.5970 hc         1 CQA       0.041867
     41 H182        -7.9130    -1.5660    -2.0810 hc         1 CQA       0.041867
     42 H183        -7.0570    -0.0370    -1.7950 hc         1 CQA       0.041867
     43 H191        -4.9470    -2.3910     1.6800 h1         1 CQA       0.039700
     44 H192        -4.1430    -0.8430     1.9210 h1         1 CQA       0.039700
     45 H201        -6.3940     0.2240     2.4090 hc         1 CQA       0.041867
     46 H202        -7.1100    -1.4080     2.3980 hc         1 CQA       0.041867
     47 H203        -5.8600    -0.9980     3.5800 hc         1 CQA       0.041867
@<TRIPOS>BOND
     1     1     2 ar  
     2     1     6 ar  
     3     1    11 1   
     4     2     3 ar  
     5     2    26 1   
     6     3     4 ar  
     7     3    27 1   
     8     4     5 ar  
     9     4     7 ar  
    10     5     6 ar  
    11     5    10 ar  
    12     6    28 1   
    13     7     8 ar  
    14     7    12 1   
    15     8     9 ar  
    16     8    29 1   
    17     9    10 ar  
    18     9    30 1   
    19    12    13 1   
    20    12    31 1   
    21    13    14 ar  
    22    13    18 ar  
    23    14    15 ar  
    24    14    32 1   
    25    15    16 ar  
    26    15    33 1   
    27    16    17 ar  
    28    16    19 1   
    29    17    18 ar  
    30    17    20 1   
    31    18    34 1   
    32    19    35 1   
    33    20    21 1   
    34    20    36 1   
    35    20    37 1   
    36    21    22 1   
    37    21    24 1   
    38    22    23 1   
    39    22    38 1   
    40    22    39 1   
    41    23    40 1   
    42    23    41 1   
    43    23    42 1   
    44    24    25 1   
    45    24    43 1   
    46    24    44 1   
    47    25    45 1   
    48    25    46 1   
    49    25    47 1   
@<TRIPOS>SUBSTRUCTURE
     1 CQA         1 TEMP              0 ****  ****    0 ROOT
