@<TRIPOS>MOLECULE
CQB
   37    36     1     0     0
SMALL
No Charge or Current Charge


@<TRIPOS>ATOM
      1 OAC         -4.9350    -1.9850     1.2900 o          1 CQB      -0.777000
      2 CAO         -4.8870    -1.2560     0.3120 c          1 CQB       0.711000
      3 OAG         -5.8790    -0.8020    -0.2360 o          1 CQB      -0.777000
      4 CAJ         -3.5050    -0.8370    -0.2200 c3         1 CQB      -0.198400
      5 CAK         -3.0320     0.4610     0.4880 c3         1 CQB      -0.040400
      6 CAU         -1.6870     1.0240    -0.0420 c3         1 CQB       0.050300
      7 CAQ         -1.3860     2.4380     0.5800 c          1 CQB       0.717000
      8 OAI         -0.5330     2.5500     1.4540 o          1 CQB      -0.754500
      9 OAE         -2.0000     3.4010     0.1380 o          1 CQB      -0.754500
     10 OAN         -0.6590     0.0330     0.2440 os         1 CQB      -0.445100
     11 CAR          0.5630     0.1800    -0.3460 c          1 CQB       0.663100
     12 OAF          0.8570     1.0220    -1.1830 o          1 CQB      -0.578000
     13 N            1.3760    -0.8410     0.0670 ns         1 CQB      -0.467900
     14 CA           2.7770    -1.0640    -0.3640 c3         1 CQB      -0.022300
     15 C            3.0210    -2.5840    -0.6340 c          1 CQB       0.705000
     16 O            2.7670    -3.3880     0.2540 o          1 CQB      -0.741000
     17 OXT          3.3890    -2.9210    -1.7510 o          1 CQB      -0.741000
     18 CB           3.7990    -0.5070     0.6660 c3         1 CQB      -0.058400
     19 CG           3.8240     1.0390     0.8370 c3         1 CQB      -0.065700
     20 CD2          4.6970     1.4460     2.0460 c3         1 CQB      -0.077600
     21 CD1          4.2920     1.7740    -0.4420 c3         1 CQB      -0.077600
     22 H2          -2.7580    -1.6050     0.0150 hc         1 CQB       0.023700
     23 H3          -3.5650    -0.5920    -1.2870 hc         1 CQB       0.023700
     24 H4          -3.8050     1.2280     0.3590 hc         1 CQB       0.041200
     25 H5          -2.9480     0.2820     1.5680 hc         1 CQB       0.041200
     26 H6          -1.7840     1.1620    -1.1270 h1         1 CQB       0.037700
     27 H8           0.9670    -1.4910     0.7270 hn         1 CQB       0.288500
     28 H9           2.9290    -0.5560    -1.3240 h1         1 CQB       0.058700
     29 H11          3.5940    -0.9720     1.6390 hc         1 CQB       0.028700
     30 H12          4.8040    -0.8400     0.3760 hc         1 CQB       0.028700
     31 H13          2.8020     1.3730     1.0580 hc         1 CQB       0.066700
     32 H14          5.7400     1.1400     1.8960 hc         1 CQB       0.015700
     33 H15          4.6750     2.5330     2.1920 hc         1 CQB       0.015700
     34 H16          4.3300     0.9760     2.9660 hc         1 CQB       0.015700
     35 H17          3.6220     1.5770    -1.2860 hc         1 CQB       0.015700
     36 H18          4.3070     2.8580    -0.2790 hc         1 CQB       0.015700
     37 H19          5.3030     1.4580    -0.7250 hc         1 CQB       0.015700
@<TRIPOS>BOND
     1     1     2 1   
     2     2     3 1   
     3     2     4 1   
     4     4     5 1   
     5     4    22 1   
     6     4    23 1   
     7     5     6 1   
     8     5    24 1   
     9     5    25 1   
    10     6     7 1   
    11     6    10 1   
    12     6    26 1   
    13     7     8 1   
    14     7     9 1   
    15    10    11 1   
    16    11    12 2   
    17    11    13 1   
    18    13    14 1   
    19    13    27 1   
    20    14    15 1   
    21    14    18 1   
    22    14    28 1   
    23    15    16 1   
    24    15    17 1   
    25    18    19 1   
    26    18    29 1   
    27    18    30 1   
    28    19    20 1   
    29    19    21 1   
    30    19    31 1   
    31    20    32 1   
    32    20    33 1   
    33    20    34 1   
    34    21    35 1   
    35    21    36 1   
    36    21    37 1   
@<TRIPOS>SUBSTRUCTURE
     1 CQB         1 TEMP              0 ****  ****    0 ROOT
