@<TRIPOS>MOLECULE
CQB
   37    36     1     0     0
SMALL
bcc


@<TRIPOS>ATOM
      1 OAC         -4.8380    -2.4660     1.4410 o          1 CQB      -0.882300
      2 CAO         -4.6230    -1.2570     1.2050 c          1 CQB       0.921600
      3 OAG         -5.3370    -0.3000     1.5650 o          1 CQB      -0.882300
      4 CAJ         -3.3570    -0.9490     0.3870 c3         1 CQB      -0.198400
      5 CAK         -3.0740     0.5250     0.1440 c3         1 CQB      -0.040400
      6 CAU         -1.8630     0.7770    -0.7450 c3         1 CQB       0.027100
      7 CAQ         -1.6890     2.2830    -1.0300 c          1 CQB       0.927600
      8 OAI         -0.7870     2.8860    -0.4260 o          1 CQB      -0.859800
      9 OAE         -2.5180     2.7590    -1.8320 o          1 CQB      -0.859800
     10 OAN         -0.7310     0.2370    -0.0660 os         1 CQB      -0.421900
     11 CAR          0.4230     0.2030    -0.7330 c          1 CQB       0.779100
     12 OAF          0.5280     0.4190    -1.9250 o          1 CQB      -0.627000
     13 N            1.4520    -0.0920     0.0860 ns         1 CQB      -0.534900
     14 CA           2.7180    -0.5310    -0.4510 c3         1 CQB      -0.022300
     15 C            2.6510    -1.9370    -1.1010 c          1 CQB       0.915600
     16 O            1.6130    -2.6010    -0.9380 o          1 CQB      -0.846300
     17 OXT          3.6740    -2.2770    -1.7300 o          1 CQB      -0.846300
     18 CB           3.7760    -0.5030     0.6520 c3         1 CQB      -0.058400
     19 CG           3.9550     0.8450     1.3550 c3         1 CQB      -0.065700
     20 CD2          4.9980     0.7220     2.4610 c3         1 CQB      -0.077600
     21 CD1          4.3330     1.9580     0.3840 c3         1 CQB      -0.077600
     22 H2          -2.5060    -1.4240     0.8860 hc         1 CQB       0.023700
     23 H3          -3.4440    -1.4670    -0.5760 hc         1 CQB       0.023700
     24 H4          -3.9330     0.9870    -0.3440 hc         1 CQB       0.041200
     25 H5          -2.9440     1.0500     1.0950 hc         1 CQB       0.041200
     26 H6          -2.0090     0.2500    -1.6940 h1         1 CQB       0.037700
     27 H8           1.2120    -0.4290     1.0060 hn         1 CQB       0.288500
     28 H9           3.0140     0.1730    -1.2320 h1         1 CQB       0.058700
     29 H11          3.5310    -1.2630     1.4050 hc         1 CQB       0.028700
     30 H12          4.7290    -0.8090     0.2130 hc         1 CQB       0.028700
     31 H13          3.0030     1.1180     1.8210 hc         1 CQB       0.066700
     32 H14          5.9770     0.4610     2.0500 hc         1 CQB       0.015700
     33 H15          5.1090     1.6620     3.0050 hc         1 CQB       0.015700
     34 H16          4.7280    -0.0490     3.1840 hc         1 CQB       0.015700
     35 H17          3.5610     2.1260    -0.3690 hc         1 CQB       0.015700
     36 H18          4.4800     2.9020     0.9130 hc         1 CQB       0.015700
     37 H19          5.2640     1.7240    -0.1390 hc         1 CQB       0.015700
@<TRIPOS>BOND
     1     1     2 1   
     2     2     3 1   
     3     2     4 1   
     4     4     5 1   
     5     4    22 1   
     6     4    23 1   
     7     5     6 1   
     8     5    24 1   
     9     5    25 1   
    10     6     7 1   
    11     6    10 1   
    12     6    26 1   
    13     7     8 1   
    14     7     9 1   
    15    10    11 1   
    16    11    12 2   
    17    11    13 1   
    18    13    14 1   
    19    13    27 1   
    20    14    15 1   
    21    14    18 1   
    22    14    28 1   
    23    15    16 1   
    24    15    17 1   
    25    18    19 1   
    26    18    29 1   
    27    18    30 1   
    28    19    20 1   
    29    19    21 1   
    30    19    31 1   
    31    20    32 1   
    32    20    33 1   
    33    20    34 1   
    34    21    35 1   
    35    21    36 1   
    36    21    37 1   
@<TRIPOS>SUBSTRUCTURE
     1 CQB         1 TEMP              0 ****  ****    0 ROOT
