@<TRIPOS>MOLECULE
CQC
   45    48     1     0     0
SMALL
abcg2


@<TRIPOS>ATOM
      1 C10         -3.1640    -1.0460    -0.2270 ce         1 CQC       0.268900
      2 C15          4.2020    -0.8190    -1.1350 c3         1 CQC       0.159300
      3 C21         -6.4970     2.5230     0.2800 c3         1 CQC       0.117300
      4 C22         -1.8590     1.5950     1.1940 c3         1 CQC      -0.111400
      5 C24          4.7140     1.6420    -0.9880 ca         1 CQC      -0.088500
      6 C26          5.7730     2.5950     0.9510 ca         1 CQC      -0.098000
      7 C28          5.3440     0.2300     0.8470 ca         1 CQC      -0.088500
      8 C01         -1.7170    -1.2910    -0.0370 ca         1 CQC      -0.130800
      9 C02         -1.3010    -2.1820     0.9540 ca         1 CQC      -0.079000
     10 C03          0.0500    -2.4500     1.1540 ca         1 CQC      -0.049000
     11 C04          0.9480    -1.8190     0.3220 ca         1 CQC      -0.127600
     12 C05          0.5330    -0.9540    -0.6740 ca         1 CQC      -0.150600
     13 C06         -0.7960    -0.6660    -0.8790 ca         1 CQC      -0.013000
     14 C07          2.4300    -1.8930     0.2740 c          1 CQC       0.586600
     15 C09          1.7370    -0.4590    -1.3850 c          1 CQC       0.588600
     16 C11         -3.7640     0.1360     0.0530 cd         1 CQC      -0.366800
     17 C16         -5.1820     0.4470    -0.1980 c          1 CQC       0.563200
     18 C19         -3.2290     1.3310     0.6790 cd         1 CQC       0.382600
     19 C23          4.7710     0.3750    -0.4140 ca         1 CQC      -0.125300
     20 C25          5.2110     2.7470    -0.3100 ca         1 CQC      -0.115500
     21 C27          5.8420     1.3330     1.5270 ca         1 CQC      -0.115500
     22 N08          2.8180    -1.0690    -0.7700 n          1 CQC      -0.388400
     23 N17         -5.3050     1.7220     0.2620 n          1 CQC      -0.186800
     24 N18         -4.1510     2.2240     0.7930 nc         1 CQC      -0.431300
     25 O12         -3.8790    -2.0570    -0.6800 oh         1 CQC      -0.478100
     26 O13          1.7960     0.3100    -2.3090 o          1 CQC      -0.477000
     27 O14          3.1680    -2.5300     0.9790 o          1 CQC      -0.479000
     28 O20         -6.0700    -0.2260    -0.7010 o          1 CQC      -0.522000
     29 H1           4.2440    -0.6800    -2.2150 h1         1 CQC       0.072200
     30 H2           4.7710    -1.7190    -0.9050 h1         1 CQC       0.072200
     31 H3          -6.8210     2.7240     1.3020 h1         1 CQC       0.048033
     32 H4          -6.3300     3.4710    -0.2310 h1         1 CQC       0.048033
     33 H5          -7.2870     1.9850    -0.2360 h1         1 CQC       0.048033
     34 H6          -1.1330     1.6880     0.3860 hc         1 CQC       0.053033
     35 H7          -1.8540     2.5280     1.7560 hc         1 CQC       0.053033
     36 H8          -1.5120     0.7970     1.8510 hc         1 CQC       0.053033
     37 H10          6.1610     3.4570     1.4790 ha         1 CQC       0.114000
     38 H11          5.4080    -0.7510     1.3010 ha         1 CQC       0.122500
     39 H12         -2.0350    -2.6560     1.5930 ha         1 CQC       0.135000
     40 H13          0.3700    -3.1270     1.9350 ha         1 CQC       0.147000
     41 H14         -1.1200     0.0090    -1.6610 ha         1 CQC       0.154000
     42 H16          5.1600     3.7260    -0.7680 ha         1 CQC       0.115500
     43 H17          6.2870     1.2050     2.5050 ha         1 CQC       0.115500
     44 H15         -3.3200    -2.8140    -0.9020 ho         1 CQC       0.480000
     45 H9           4.2820     1.7680    -1.9730 ha         1 CQC       0.122500
@<TRIPOS>BOND
     1     1     8 1   
     2     1    16 2   
     3     1    25 1   
     4     2    19 1   
     5     2    22 1   
     6     2    29 1   
     7     2    30 1   
     8     3    23 1   
     9     3    31 1   
    10     3    32 1   
    11     3    33 1   
    12     4    18 1   
    13     4    34 1   
    14     4    35 1   
    15     4    36 1   
    16     5    19 ar  
    17     5    20 ar  
    18     5    45 1   
    19     6    20 ar  
    20     6    21 ar  
    21     6    37 1   
    22     7    19 ar  
    23     7    21 ar  
    24     7    38 1   
    25     8     9 ar  
    26     8    13 ar  
    27     9    10 ar  
    28     9    39 1   
    29    10    11 ar  
    30    10    40 1   
    31    11    12 ar  
    32    11    14 1   
    33    12    13 ar  
    34    12    15 1   
    35    13    41 1   
    36    14    22 1   
    37    14    27 2   
    38    15    22 1   
    39    15    26 2   
    40    16    17 1   
    41    16    18 1   
    42    17    23 1   
    43    17    28 2   
    44    18    24 2   
    45    20    42 1   
    46    21    43 1   
    47    23    24 1   
    48    25    44 1   
@<TRIPOS>SUBSTRUCTURE
     1 CQC         1 TEMP              0 ****  ****    0 ROOT
