@<TRIPOS>MOLECULE
CQC
   45    48     1     0     0
SMALL
No Charge or Current Charge


@<TRIPOS>ATOM
      1 C10         -3.2430    -1.1690     0.3820 ce         1 CQC       0.268900
      2 C15          4.0200    -0.6290    -1.3890 c3         1 CQC       0.159300
      3 C21         -6.1690     2.7350    -0.5550 c3         1 CQC       0.117300
      4 C22         -2.1340     1.3650     1.8770 c3         1 CQC      -0.111400
      5 C24          4.5210     1.8310    -0.9830 ca         1 CQC      -0.088500
      6 C26          5.9360     2.5510     0.8630 ca         1 CQC      -0.098000
      7 C28          5.4960     0.1810     0.5170 ca         1 CQC      -0.088500
      8 C01         -1.7780    -1.4120     0.3580 ca         1 CQC      -0.130800
      9 C02         -1.2060    -2.3800     1.2250 ca         1 CQC      -0.079000
     10 C03          0.1850    -2.6200     1.2260 ca         1 CQC      -0.049000
     11 C04          0.9790    -1.8750     0.3440 ca         1 CQC      -0.127600
     12 C05          0.4240    -0.9300    -0.5090 ca         1 CQC      -0.150600
     13 C06         -0.9540    -0.6760    -0.5270 ca         1 CQC      -0.013000
     14 C07          2.4540    -1.9000     0.1220 c          1 CQC       0.586600
     15 C09          1.5210    -0.3150    -1.3080 c          1 CQC       0.588600
     16 C11         -3.8500     0.0620     0.3210 cd         1 CQC      -0.366800
     17 C16         -5.0630     0.4680    -0.3990 c          1 CQC       0.563200
     18 C19         -3.3380     1.2320     0.9820 cd         1 CQC       0.382600
     19 C23          4.6970     0.4860    -0.6030 ca         1 CQC      -0.125300
     20 C25          5.1390     2.8600    -0.2510 ca         1 CQC      -0.115500
     21 C27          6.1140     1.2110     1.2470 ca         1 CQC      -0.115500
     22 N08          2.6820    -0.9500    -0.8710 n          1 CQC      -0.388400
     23 N17         -5.1170     1.8200    -0.0760 n          1 CQC      -0.186800
     24 N18         -4.1140     2.2800     0.7320 nc         1 CQC      -0.431300
     25 O12         -3.9670    -2.1770    -0.1520 oh         1 CQC      -0.478100
     26 O13          1.4270     0.5540    -2.1620 o          1 CQC      -0.477000
     27 O14          3.2850    -2.6000     0.6830 o          1 CQC      -0.479000
     28 O20         -5.8330    -0.1670    -1.1070 o          1 CQC      -0.522000
     29 H1           3.9380    -0.3350    -2.4440 h1         1 CQC       0.072200
     30 H2           4.6460    -1.5310    -1.3580 h1         1 CQC       0.072200
     31 H3          -7.1500     2.3710    -0.2260 h1         1 CQC       0.048033
     32 H4          -6.0070     3.7440    -0.1540 h1         1 CQC       0.048033
     33 H5          -6.1480     2.7760    -1.6510 h1         1 CQC       0.048033
     34 H6          -1.2240     1.5170     1.2870 hc         1 CQC       0.053033
     35 H7          -2.2380     2.2170     2.5580 hc         1 CQC       0.053033
     36 H8          -1.9980     0.4680     2.4910 hc         1 CQC       0.053033
     37 H10          6.4140     3.3480     1.4290 ha         1 CQC       0.114000
     38 H11          5.6370    -0.8540     0.8240 ha         1 CQC       0.122500
     39 H12         -1.8410    -2.9400     1.9090 ha         1 CQC       0.135000
     40 H13          0.6280    -3.3580     1.8930 ha         1 CQC       0.147000
     41 H14         -1.3730     0.0670    -1.2040 ha         1 CQC       0.154000
     42 H16          4.9990     3.8970    -0.5490 ha         1 CQC       0.115500
     43 H17          6.7290     0.9700     2.1110 ha         1 CQC       0.115500
     44 H15         -3.3330    -2.9120    -0.2810 ho         1 CQC       0.480000
     45 H9           3.9020     2.0800    -1.8430 ha         1 CQC       0.122500
@<TRIPOS>BOND
     1     1     8 1   
     2     1    16 2   
     3     1    25 1   
     4     2    19 1   
     5     2    22 1   
     6     2    29 1   
     7     2    30 1   
     8     3    23 1   
     9     3    31 1   
    10     3    32 1   
    11     3    33 1   
    12     4    18 1   
    13     4    34 1   
    14     4    35 1   
    15     4    36 1   
    16     5    19 ar  
    17     5    20 ar  
    18     5    45 1   
    19     6    20 ar  
    20     6    21 ar  
    21     6    37 1   
    22     7    19 ar  
    23     7    21 ar  
    24     7    38 1   
    25     8     9 ar  
    26     8    13 ar  
    27     9    10 ar  
    28     9    39 1   
    29    10    11 ar  
    30    10    40 1   
    31    11    12 ar  
    32    11    14 1   
    33    12    13 ar  
    34    12    15 1   
    35    13    41 1   
    36    14    22 1   
    37    14    27 2   
    38    15    22 1   
    39    15    26 2   
    40    16    17 1   
    41    16    18 1   
    42    17    23 1   
    43    17    28 2   
    44    18    24 2   
    45    20    42 1   
    46    21    43 1   
    47    23    24 1   
    48    25    44 1   
@<TRIPOS>SUBSTRUCTURE
     1 CQC         1 TEMP              0 ****  ****    0 ROOT
