@<TRIPOS>MOLECULE
CQD
   38    40     1     0     0
SMALL
abcg2


@<TRIPOS>ATOM
      1 O            0.4990    -1.9520    -0.0430 o          1 CQD      -0.455100
      2 C            1.3200    -1.0710    -0.0300 c          1 CQD       0.469800
      3 CAS          2.7730    -1.3800    -0.1490 ca         1 CQD       0.301500
      4 NAM          3.0760    -2.6540    -0.3500 nb         1 CQD      -0.625000
      5 CAE          4.3550    -2.9780    -0.4460 ca         1 CQD       0.347900
      6 CAD          5.3860    -2.0490    -0.3410 ca         1 CQD      -0.149000
      7 CAF          5.0630    -0.7220    -0.1300 ca         1 CQD      -0.032000
      8 CD2          3.7210    -0.3730    -0.0320 ca         1 CQD      -0.170600
      9 CG           3.3200     1.0390     0.1880 c          1 CQD       0.614900
     10 OD1          4.1650     1.9110     0.2940 o          1 CQD      -0.513100
     11 CB           1.9080     1.3100     0.2550 cc         1 CQD      -0.169200
     12 CL           1.4810     2.9690     0.4810 cl         1 CQD      -0.176000
     13 CA           0.9130     0.3680     0.1280 cd         1 CQD       0.162800
     14 N           -0.3780     0.6860     0.1720 nu         1 CQD      -0.797200
     15 CAG         -1.5680    -0.1310    -0.0090 c3         1 CQD       0.230800
     16 CAJ         -2.7750     0.7990    -0.0790 c3         1 CQD       0.150800
     17 NAV         -4.0000     0.0420    -0.2120 n3         1 CQD      -0.721600
     18 CAK         -5.0600     0.8010    -0.8510 c6         1 CQD       0.128800
     19 CAH         -6.2800    -0.0800    -1.0430 c6         1 CQD       0.153600
     20 OAO         -6.7320    -0.6170     0.1800 os         1 CQD      -0.448000
     21 CAI         -5.7080    -1.3470     0.8190 c6         1 CQD       0.153600
     22 CAL         -4.4740    -0.4970     1.0500 c6         1 CQD       0.128800
     23 H1           4.5800    -4.0240    -0.6130 h4         1 CQD       0.029100
     24 H2           6.4150    -2.3670    -0.4250 ha         1 CQD       0.132000
     25 H3           5.8340     0.0310    -0.0410 ha         1 CQD       0.148000
     26 H6          -0.5650     1.6660     0.3350 hn         1 CQD       0.498000
     27 H8          -1.5140    -0.7020    -0.9350 h1         1 CQD       0.071200
     28 H9          -1.6740    -0.8390     0.8140 h1         1 CQD       0.071200
     29 H10         -2.7910     1.4630     0.8020 h1         1 CQD       0.039700
     30 H11         -2.6650     1.4420    -0.9550 h1         1 CQD       0.039700
     31 H13         -5.3410     1.6940    -0.2670 h1         1 CQD       0.042700
     32 H14         -4.7200     1.1480    -1.8290 h1         1 CQD       0.042700
     33 H15         -7.0990     0.5030    -1.4670 h1         1 CQD       0.053950
     34 H16         -6.0380    -0.8860    -1.7500 h1         1 CQD       0.053950
     35 H17         -6.1040    -1.6990     1.7730 h1         1 CQD       0.053950
     36 H18         -5.4320    -2.2280     0.2220 h1         1 CQD       0.053950
     37 H19         -3.7080    -1.1260     1.5080 h1         1 CQD       0.042700
     38 H20         -4.7020     0.3070     1.7710 h1         1 CQD       0.042700
@<TRIPOS>BOND
     1     1     2 2   
     2     2     3 1   
     3     2    13 1   
     4     3     4 ar  
     5     3     8 ar  
     6     4     5 ar  
     7     5     6 ar  
     8     5    23 1   
     9     6     7 ar  
    10     6    24 1   
    11     7     8 ar  
    12     7    25 1   
    13     8     9 1   
    14     9    10 2   
    15     9    11 1   
    16    11    12 1   
    17    11    13 2   
    18    13    14 1   
    19    14    15 1   
    20    14    26 1   
    21    15    16 1   
    22    15    27 1   
    23    15    28 1   
    24    16    17 1   
    25    16    29 1   
    26    16    30 1   
    27    17    18 1   
    28    17    22 1   
    29    18    19 1   
    30    18    31 1   
    31    18    32 1   
    32    19    20 1   
    33    19    33 1   
    34    19    34 1   
    35    20    21 1   
    36    21    22 1   
    37    21    35 1   
    38    21    36 1   
    39    22    37 1   
    40    22    38 1   
@<TRIPOS>SUBSTRUCTURE
     1 CQD         1 TEMP              0 ****  ****    0 ROOT
