@<TRIPOS>MOLECULE
CQD
   38    40     1     0     0
SMALL
No Charge or Current Charge


@<TRIPOS>ATOM
      1 O            0.5480    -2.0160    -0.0880 o          1 CQD      -0.455100
      2 C            1.3830    -1.1100    -0.0760 c          1 CQD       0.469800
      3 CAS          2.8740    -1.4260    -0.0470 ca         1 CQD       0.301500
      4 NAM          3.2480    -2.7410    -0.0370 nb         1 CQD      -0.625000
      5 CAE          4.5610    -3.0560    -0.0120 ca         1 CQD       0.347900
      6 CAD          5.5690    -2.0860     0.0050 ca         1 CQD      -0.149000
      7 CAF          5.2080    -0.7320    -0.0050 ca         1 CQD      -0.032000
      8 CD2          3.8370    -0.3910    -0.0320 ca         1 CQD      -0.170600
      9 CG           3.4250     1.0520    -0.0430 c          1 CQD       0.614900
     10 OD1          4.2710     1.9410    -0.0290 o          1 CQD      -0.513100
     11 CB           1.9710     1.3480    -0.0720 cc         1 CQD      -0.169200
     12 Cl           1.5470     3.0540    -0.0850 cl         1 CQD      -0.176000
     13 CA           1.0050     0.3580    -0.0880 cd         1 CQD       0.162800
     14 N           -0.3270     0.7790    -0.1140 nu         1 CQD      -0.797200
     15 CAG         -1.5600    -0.0460    -0.1520 c3         1 CQD       0.230800
     16 CAJ         -2.8420     0.8330    -0.1860 c3         1 CQD       0.150800
     17 NAV         -4.1280     0.0920    -0.3230 n3         1 CQD      -0.721600
     18 CAK         -5.2890     1.0080    -0.5560 c6         1 CQD       0.128800
     19 CAH         -6.6240     0.2220    -0.7230 c6         1 CQD       0.153600
     20 OAO         -6.8470    -0.6360     0.4210 os         1 CQD      -0.448000
     21 CAI         -5.7740    -1.5860     0.6230 c6         1 CQD       0.153600
     22 CAL         -4.4180    -0.8410     0.8160 c6         1 CQD       0.128800
     23 H1           4.8090    -4.1170    -0.0040 h4         1 CQD       0.029100
     24 H2           6.6140    -2.3850     0.0250 ha         1 CQD       0.132000
     25 H3           5.9830     0.0340     0.0070 ha         1 CQD       0.148000
     26 H6          -0.4490     1.7950    -0.1210 hn         1 CQD       0.498000
     27 H8          -1.5560    -0.6870    -1.0430 h1         1 CQD       0.071200
     28 H9          -1.5960    -0.6950     0.7320 h1         1 CQD       0.071200
     29 H10         -2.8650     1.4460     0.7250 h1         1 CQD       0.039700
     30 H11         -2.7400     1.5240    -1.0330 h1         1 CQD       0.039700
     31 H13         -5.3980     1.7080     0.2850 h1         1 CQD       0.042700
     32 H14         -5.1220     1.6130    -1.4600 h1         1 CQD       0.042700
     33 H15         -7.4630     0.9250    -0.8170 h1         1 CQD       0.053950
     34 H16         -6.5870    -0.3910    -1.6360 h1         1 CQD       0.053950
     35 H17         -5.9950    -2.1970     1.5090 h1         1 CQD       0.053950
     36 H18         -5.7130    -2.2550    -0.2480 h1         1 CQD       0.053950
     37 H19         -3.6260    -1.5970     0.9130 h1         1 CQD       0.042700
     38 H20         -4.4540    -0.2860     1.7650 h1         1 CQD       0.042700
@<TRIPOS>BOND
     1     1     2 2   
     2     2     3 1   
     3     2    13 1   
     4     3     4 ar  
     5     3     8 ar  
     6     4     5 ar  
     7     5     6 ar  
     8     5    23 1   
     9     6     7 ar  
    10     6    24 1   
    11     7     8 ar  
    12     7    25 1   
    13     8     9 1   
    14     9    10 2   
    15     9    11 1   
    16    11    12 1   
    17    11    13 2   
    18    13    14 1   
    19    14    15 1   
    20    14    26 1   
    21    15    16 1   
    22    15    27 1   
    23    15    28 1   
    24    16    17 1   
    25    16    29 1   
    26    16    30 1   
    27    17    18 1   
    28    17    22 1   
    29    18    19 1   
    30    18    31 1   
    31    18    32 1   
    32    19    20 1   
    33    19    33 1   
    34    19    34 1   
    35    20    21 1   
    36    21    22 1   
    37    21    35 1   
    38    21    36 1   
    39    22    37 1   
    40    22    38 1   
@<TRIPOS>SUBSTRUCTURE
     1 CQD         1 TEMP              0 ****  ****    0 ROOT
