@<TRIPOS>MOLECULE
CQE
   71    76     1     0     0
SMALL
No Charge or Current Charge


@<TRIPOS>ATOM
      1 F18          5.3550     2.0060     1.9420 f          1 CQE      -0.148000
      2 C13          5.5260     0.7980     1.3650 ca         1 CQE       0.260000
      3 C14          5.6730    -0.3220     2.2020 ca         1 CQE      -0.131000
      4 C15          5.8420    -1.6050     1.6510 ca         1 CQE      -0.071000
      5 C16          5.8610    -1.7650     0.2570 ca         1 CQE       0.139000
      6 F19          6.0190    -2.9970    -0.2750 f          1 CQE      -0.171000
      7 C17          5.7150    -0.6520    -0.5870 ca         1 CQE      -0.038000
      8 C12          5.5500     0.6430    -0.0380 ca         1 CQE      -0.325500
      9 S9           5.3380     2.0400    -1.1420 sy         1 CQE       1.153600
     10 O10          5.6380     3.3110    -0.4790 o          1 CQE      -0.520000
     11 O11          5.8770     1.7050    -2.4610 o          1 CQE      -0.520000
     12 N8           3.6840     2.0910    -1.4370 nu         1 CQE      -0.860100
     13 C5           2.6410     2.0480    -0.4970 ca         1 CQE       0.175000
     14 C6           1.5720     1.1320    -0.6600 ca         1 CQE       0.174000
     15 F7           1.5610     0.3110    -1.7390 f          1 CQE      -0.164000
     16 C4           2.6260     2.9160     0.6130 ca         1 CQE      -0.032000
     17 C3           1.5810     2.8600     1.5500 ca         1 CQE      -0.120000
     18 C2           0.5330     1.9400     1.3870 ca         1 CQE      -0.055000
     19 C1           0.5140     1.0760     0.2730 ca         1 CQE      -0.156500
     20 C20         -0.5680     0.1090     0.1240 cc         1 CQE       0.357500
     21 N21         -0.2980    -1.2320     0.1080 nc         1 CQE      -0.637000
     22 C22         -1.4340    -1.9090     0.0320 cd         1 CQE       0.450700
     23 C25         -1.4540    -3.4260    -0.0120 c6         1 CQE      -0.104000
     24 C30         -2.1840    -4.0270     1.2220 c6         1 CQE      -0.108400
     25 C29         -2.2540    -5.5750     1.1310 c6         1 CQE       0.175300
     26 C26         -2.1010    -3.9530    -1.3240 c6         1 CQE      -0.108400
     27 C27         -2.1730    -5.5030    -1.3290 c6         1 CQE       0.175300
     28 N28         -2.8950    -6.0320    -0.1360 n3         1 CQE      -0.702600
     29 C37         -4.3260    -5.8260    -0.1760 cx         1 CQE       0.103500
     30 C38         -5.1450    -6.7970    -0.9890 cx         1 CQE      -0.123900
     31 C39         -5.1940    -6.8410     0.5230 cx         1 CQE      -0.123900
     32 S23         -2.9060    -0.9370     0.0140 ss         1 CQE      -0.014400
     33 C24         -1.8950     0.5020     0.0890 cd         1 CQE      -0.176000
     34 C31         -2.4990     1.8470    -0.0780 ca         1 CQE       0.055000
     35 C36         -3.8570     2.0540     0.2300 ca         1 CQE      -0.217000
     36 C32         -1.7910     2.9630    -0.5680 ca         1 CQE      -0.181000
     37 C33         -2.4380     4.2020    -0.6910 ca         1 CQE       0.374900
     38 N34         -3.7360     4.3910    -0.3750 nb         1 CQE      -0.670000
     39 C35         -4.4290     3.3210     0.0510 ca         1 CQE       0.492900
     40 N40         -5.7580     3.5600     0.4270 ns         1 CQE      -0.333900
     41 C41         -6.6840     4.4500    -0.0740 c          1 CQE       0.610100
     42 O42         -6.4910     5.1840    -1.0340 o          1 CQE      -0.527100
     43 C43         -8.0200     4.4310     0.6620 c3         1 CQE      -0.185100
     44 H14          5.6530    -0.1920     3.2810 ha         1 CQE       0.140000
     45 H15          5.9550    -2.4710     2.2990 ha         1 CQE       0.135000
     46 H17          5.7290    -0.8060    -1.6640 ha         1 CQE       0.158000
     47 H8           3.5700     1.4880    -2.2430 hn         1 CQE       0.497000
     48 H4           3.4190     3.6450     0.7500 ha         1 CQE       0.147000
     49 H3           1.5840     3.5310     2.4060 ha         1 CQE       0.131000
     50 H2          -0.2670     1.9000     2.1240 ha         1 CQE       0.128000
     51 H25         -0.4150    -3.7850     0.0110 hc         1 CQE       0.077700
     52 H301        -1.6600    -3.7390     2.1430 hc         1 CQE       0.051200
     53 H302        -3.2000    -3.6180     1.3050 hc         1 CQE       0.051200
     54 H261        -3.1100    -3.5370    -1.4500 hc         1 CQE       0.051200
     55 H262        -1.5190    -3.6120    -2.1910 hc         1 CQE       0.051200
     56 H291        -1.2300    -5.9730     1.1920 h1         1 CQE       0.056200
     57 H292        -2.7950    -5.9680     2.0050 h1         1 CQE       0.056200
     58 H271        -2.6560    -5.8440    -2.2570 h1         1 CQE       0.056200
     59 H272        -1.1470    -5.8990    -1.3460 h1         1 CQE       0.056200
     60 H37         -4.6610    -4.7880    -0.1570 h1         1 CQE       0.056700
     61 H381        -6.0110    -6.4050    -1.5150 hc         1 CQE       0.075200
     62 H382        -4.6230    -7.6000    -1.5020 hc         1 CQE       0.075200
     63 H391        -4.7050    -7.6740     1.0210 hc         1 CQE       0.075200
     64 H392        -6.0940    -6.4790     1.0130 hc         1 CQE       0.075200
     65 H36         -4.4740     1.2520     0.6210 ha         1 CQE       0.122000
     66 H32         -0.7580     2.8980    -0.8840 ha         1 CQE       0.136000
     67 H33         -1.8990     5.0730    -1.0630 h4         1 CQE       0.028100
     68 H40         -6.0860     2.9760     1.1830 hn         1 CQE       0.150000
     69 H431        -8.4080     3.4060     0.6710 hc         1 CQE       0.063367
     70 H432        -7.8430     4.6210     1.7270 hc         1 CQE       0.063367
     71 H433        -8.7450     5.1350     0.2400 hc         1 CQE       0.063367
@<TRIPOS>BOND
     1     1     2 1   
     2     2     3 ar  
     3     2     8 ar  
     4     3     4 ar  
     5     3    44 1   
     6     4     5 ar  
     7     4    45 1   
     8     5     6 1   
     9     5     7 ar  
    10     7     8 ar  
    11     7    46 1   
    12     8     9 1   
    13     9    10 2   
    14     9    11 2   
    15     9    12 1   
    16    12    13 1   
    17    12    47 1   
    18    13    14 ar  
    19    13    16 ar  
    20    14    15 1   
    21    14    19 ar  
    22    16    17 ar  
    23    16    48 1   
    24    17    18 ar  
    25    17    49 1   
    26    18    19 ar  
    27    18    50 1   
    28    19    20 1   
    29    20    21 1   
    30    20    33 2   
    31    21    22 2   
    32    22    23 1   
    33    22    32 1   
    34    23    24 1   
    35    23    26 1   
    36    23    51 1   
    37    24    25 1   
    38    24    52 1   
    39    24    53 1   
    40    25    28 1   
    41    25    56 1   
    42    25    57 1   
    43    26    27 1   
    44    26    54 1   
    45    26    55 1   
    46    27    28 1   
    47    27    58 1   
    48    27    59 1   
    49    28    29 1   
    50    29    30 1   
    51    29    31 1   
    52    29    60 1   
    53    30    31 1   
    54    30    61 1   
    55    30    62 1   
    56    31    63 1   
    57    31    64 1   
    58    32    33 1   
    59    33    34 1   
    60    34    35 ar  
    61    34    36 ar  
    62    35    39 ar  
    63    35    65 1   
    64    36    37 ar  
    65    36    66 1   
    66    37    38 ar  
    67    37    67 1   
    68    38    39 ar  
    69    39    40 1   
    70    40    41 1   
    71    40    68 1   
    72    41    42 2   
    73    41    43 1   
    74    43    69 1   
    75    43    70 1   
    76    43    71 1   
@<TRIPOS>SUBSTRUCTURE
     1 CQE         1 TEMP              0 ****  ****    0 ROOT
