@<TRIPOS>MOLECULE
CQE
   71    76     1     0     0
SMALL
abcg2


@<TRIPOS>ATOM
      1 F18          3.2680     0.4340     2.1730 f          1 CQE      -0.148000
      2 C13          3.5780    -0.5160     1.2930 ca         1 CQE       0.260000
      3 C14          2.9500    -1.7420     1.4000 ca         1 CQE      -0.131000
      4 C15          3.2520    -2.7450     0.4980 ca         1 CQE      -0.071000
      5 C16          4.1770    -2.4950    -0.5000 ca         1 CQE       0.139000
      6 F19          4.4740    -3.4680    -1.3690 f          1 CQE      -0.171000
      7 C17          4.8030    -1.2760    -0.6290 ca         1 CQE      -0.038000
      8 C12          4.4970    -0.2700     0.2820 ca         1 CQE      -0.325500
      9 S9           5.2560     1.3230     0.0530 sy         1 CQE       1.153600
     10 O10          5.4450     1.9410     1.3460 o          1 CQE      -0.520000
     11 O11          6.3750     1.1580    -0.8530 o          1 CQE      -0.520000
     12 N8           4.1370     2.2320    -0.7800 nu         1 CQE      -0.860100
     13 C5           2.8680     2.4070    -0.1750 ca         1 CQE       0.175000
     14 C6           1.8250     1.5360    -0.4610 ca         1 CQE       0.174000
     15 F7           2.0280     0.5940    -1.3850 f          1 CQE      -0.164000
     16 C4           2.6580     3.4230     0.7470 ca         1 CQE      -0.032000
     17 C3           1.4280     3.5420     1.3760 ca         1 CQE      -0.120000
     18 C2           0.4120     2.6410     1.0990 ca         1 CQE      -0.055000
     19 C1           0.5940     1.6160     0.1720 ca         1 CQE      -0.156500
     20 C20         -0.4340     0.5950    -0.0760 cc         1 CQE       0.357500
     21 N21         -0.0680    -0.7180     0.0090 nc         1 CQE      -0.637000
     22 C22         -1.0680    -1.5170    -0.1580 cd         1 CQE       0.450700
     23 C25         -0.9710    -3.0040    -0.0960 c6         1 CQE      -0.104000
     24 C30         -1.5620    -3.5680     1.2020 c6         1 CQE      -0.108400
     25 C29         -1.4100    -5.0890     1.2230 c6         1 CQE       0.175300
     26 C26         -1.6060    -3.6970    -1.3030 c6         1 CQE      -0.108400
     27 C27         -1.4470    -5.2120    -1.1740 c6         1 CQE       0.175300
     28 N28         -1.9790    -5.7550     0.0650 n3         1 CQE      -0.702600
     29 C37         -3.4060    -5.8330     0.0900 cx         1 CQE       0.103500
     30 C38         -4.0430    -7.0070    -0.5840 cx         1 CQE      -0.123900
     31 C39         -4.0210    -6.9200     0.9130 cx         1 CQE      -0.123900
     32 S23         -2.5690    -0.7040    -0.4390 ss         1 CQE      -0.014400
     33 C24         -1.7620     0.8160    -0.3220 cd         1 CQE      -0.176000
     34 C31         -2.4890     2.0710    -0.5050 ca         1 CQE       0.055000
     35 C36         -3.7510     2.2420     0.0380 ca         1 CQE      -0.217000
     36 C32         -1.9450     3.1240    -1.2470 ca         1 CQE      -0.181000
     37 C33         -2.6930     4.2750    -1.3850 ca         1 CQE       0.374900
     38 N34         -3.9040     4.4510    -0.8620 nb         1 CQE      -0.670000
     39 C35         -4.4220     3.4530    -0.1700 ca         1 CQE       0.492900
     40 N40         -5.6810     3.5820     0.4030 ns         1 CQE      -0.333900
     41 C41         -6.5970     4.5920     0.2870 c          1 CQE       0.610100
     42 O42         -6.4360     5.5920    -0.3790 o          1 CQE      -0.527100
     43 C43         -7.8590     4.3540     1.0800 c3         1 CQE      -0.185100
     44 H14          2.2260    -1.9050     2.1850 ha         1 CQE       0.140000
     45 H15          2.7760    -3.7130     0.5740 ha         1 CQE       0.135000
     46 H17          5.5200    -1.1150    -1.4230 ha         1 CQE       0.158000
     47 H8           4.1230     1.9920    -1.7670 hn         1 CQE       0.497000
     48 H4           3.4610     4.1130     0.9650 ha         1 CQE       0.147000
     49 H3           1.2670     4.3300     2.0970 ha         1 CQE       0.131000
     50 H2          -0.5330     2.7180     1.6190 ha         1 CQE       0.128000
     51 H25          0.1040    -3.2210    -0.1010 hc         1 CQE       0.077700
     52 H301        -1.0560    -3.1330     2.0670 hc         1 CQE       0.051200
     53 H302        -2.6190    -3.2910     1.2850 hc         1 CQE       0.051200
     54 H261        -2.6680    -3.4380    -1.3750 hc         1 CQE       0.051200
     55 H262        -1.1370    -3.3540    -2.2280 hc         1 CQE       0.051200
     56 H291        -0.3430    -5.3350     1.2730 h1         1 CQE       0.056200
     57 H292        -1.8680    -5.4990     2.1250 h1         1 CQE       0.056200
     58 H271        -1.9300    -5.7150    -2.0140 h1         1 CQE       0.056200
     59 H272        -0.3810    -5.4600    -1.2300 h1         1 CQE       0.056200
     60 H37         -3.9750    -4.9030     0.0430 h1         1 CQE       0.056700
     61 H381        -4.9840    -6.8530    -1.0960 hc         1 CQE       0.075200
     62 H382        -3.3850    -7.7250    -1.0560 hc         1 CQE       0.075200
     63 H391        -3.3480    -7.5800     1.4460 hc         1 CQE       0.075200
     64 H392        -4.9460    -6.7050     1.4320 hc         1 CQE       0.075200
     65 H36         -4.2140     1.4610     0.6280 ha         1 CQE       0.122000
     66 H32         -0.9770     3.0430    -1.7190 ha         1 CQE       0.136000
     67 H33         -2.2970     5.1070    -1.9560 h4         1 CQE       0.028100
     68 H40         -5.9630     2.7990     0.9720 hn         1 CQE       0.150000
     69 H431        -7.8850     3.3960     1.5960 hc         1 CQE       0.063367
     70 H432        -7.9690     5.1460     1.8210 hc         1 CQE       0.063367
     71 H433        -8.7190     4.4110     0.4130 hc         1 CQE       0.063367
@<TRIPOS>BOND
     1     1     2 1   
     2     2     3 ar  
     3     2     8 ar  
     4     3     4 ar  
     5     3    44 1   
     6     4     5 ar  
     7     4    45 1   
     8     5     6 1   
     9     5     7 ar  
    10     7     8 ar  
    11     7    46 1   
    12     8     9 1   
    13     9    10 2   
    14     9    11 2   
    15     9    12 1   
    16    12    13 1   
    17    12    47 1   
    18    13    14 ar  
    19    13    16 ar  
    20    14    15 1   
    21    14    19 ar  
    22    16    17 ar  
    23    16    48 1   
    24    17    18 ar  
    25    17    49 1   
    26    18    19 ar  
    27    18    50 1   
    28    19    20 1   
    29    20    21 1   
    30    20    33 2   
    31    21    22 2   
    32    22    23 1   
    33    22    32 1   
    34    23    24 1   
    35    23    26 1   
    36    23    51 1   
    37    24    25 1   
    38    24    52 1   
    39    24    53 1   
    40    25    28 1   
    41    25    56 1   
    42    25    57 1   
    43    26    27 1   
    44    26    54 1   
    45    26    55 1   
    46    27    28 1   
    47    27    58 1   
    48    27    59 1   
    49    28    29 1   
    50    29    30 1   
    51    29    31 1   
    52    29    60 1   
    53    30    31 1   
    54    30    61 1   
    55    30    62 1   
    56    31    63 1   
    57    31    64 1   
    58    32    33 1   
    59    33    34 1   
    60    34    35 ar  
    61    34    36 ar  
    62    35    39 ar  
    63    35    65 1   
    64    36    37 ar  
    65    36    66 1   
    66    37    38 ar  
    67    37    67 1   
    68    38    39 ar  
    69    39    40 1   
    70    40    41 1   
    71    40    68 1   
    72    41    42 2   
    73    41    43 1   
    74    43    69 1   
    75    43    70 1   
    76    43    71 1   
@<TRIPOS>SUBSTRUCTURE
     1 CQE         1 TEMP              0 ****  ****    0 ROOT
