@<TRIPOS>MOLECULE
CQF
   50    54     1     0     0
SMALL
No Charge or Current Charge


@<TRIPOS>ATOM
      1 C01          2.1440    -0.8900     1.4130 ca         1 CQF      -0.101000
      2 C02          2.4780    -0.2990     0.1780 ca         1 CQF       0.037000
      3 C03          1.5830    -0.4440    -0.9010 ca         1 CQF      -0.094000
      4 C04          0.3700    -1.1540    -0.7680 ca         1 CQF      -0.102300
      5 C05          0.0460    -1.7320     0.4880 ca         1 CQF       0.000800
      6 C06          0.9440    -1.6010     1.5620 ca         1 CQF      -0.098000
      7 C07         -0.5670    -1.2360    -1.9900 c3         1 CQF       0.289800
      8 C08         -0.7620    -2.6790    -2.5380 c3         1 CQF      -0.085400
      9 C09         -0.9070    -3.7980    -1.4720 c3         1 CQF      -0.107700
     10 C10         -1.6290    -3.3530    -0.2330 cc         1 CQF       0.383800
     11 C14         -2.1250    -2.1800     1.5740 cc         1 CQF       0.411800
     12 C15         -2.0810    -1.1530     2.6690 c3         1 CQF      -0.126400
     13 C16          3.7250     0.4550    -0.0070 cc         1 CQF      -0.171000
     14 C17          4.6450     0.6440     0.9850 cd         1 CQF      -0.147000
     15 C20          4.2310     1.1090    -1.1440 cc         1 CQF       0.258900
     16 C23         -2.0780     0.5760    -1.0240 ca         1 CQF       0.328000
     17 C24         -1.1980     1.6630    -1.1710 ca         1 CQF      -0.178000
     18 C25         -1.4130     2.8510    -0.4480 ca         1 CQF      -0.062000
     19 C26         -2.5140     2.9530     0.4180 ca         1 CQF       0.066000
     20 C27         -3.4020     1.8740     0.5580 ca         1 CQF      -0.062000
     21 C28         -3.1840     0.6880    -0.1670 ca         1 CQF      -0.178000
     22 N11         -1.1310    -2.4630     0.6730 na         1 CQF      -0.276800
     23 N12         -2.8560    -3.6820     0.1420 nd         1 CQF      -0.358000
     24 N13         -3.1640    -2.9510     1.2780 nd         1 CQF      -0.368000
     25 N18          5.6550     1.4030     0.3850 na         1 CQF       0.138800
     26 N19          5.3950     1.6940    -0.9490 nd         1 CQF      -0.519800
     27 N22         -1.8750    -0.6180    -1.7100 nu         1 CQF      -0.972200
     28 Cl2         -2.7820     4.4350     1.3260 cl         1 CQF      -0.215000
     29 H011         2.8080    -0.8090     2.2670 ha         1 CQF       0.117000
     30 H031         1.8260     0.0060    -1.8590 ha         1 CQF       0.119000
     31 H061         0.7180    -2.0610     2.5220 ha         1 CQF       0.128000
     32 H071        -0.1070    -0.6570    -2.8040 h1         1 CQF       0.062700
     33 H082        -1.6320    -2.6940    -3.2060 hc         1 CQF       0.062200
     34 H081         0.1000    -2.9250    -3.1680 hc         1 CQF       0.062200
     35 H092        -1.4140    -4.6630    -1.9160 hc         1 CQF       0.072200
     36 H091         0.0920    -4.1450    -1.1840 hc         1 CQF       0.072200
     37 H153        -1.5890    -0.2350     2.3270 hc         1 CQF       0.063033
     38 H151        -3.0930    -0.8870     2.9950 hc         1 CQF       0.063033
     39 H152        -1.5340    -1.5350     3.5370 hc         1 CQF       0.063033
     40 H171         4.6820     0.3270     2.0200 h4         1 CQF       0.155000
     41 H201         3.7770     1.1770    -2.1230 h4         1 CQF       0.039100
     42 H212         7.7570     1.4720     0.5030 h1         1 CQF       0.059367
     43 H211         6.9180     2.9740     0.9960 h1         1 CQF       0.059367
     44 H213         6.9090     1.5490     2.0750 h1         1 CQF       0.059367
     45 H241        -0.3490     1.5910    -1.8420 ha         1 CQF       0.120500
     46 H251        -0.7290     3.6890    -0.5600 ha         1 CQF       0.125500
     47 H271        -4.2560     1.9560     1.2270 ha         1 CQF       0.125500
     48 H281        -3.8710    -0.1450    -0.0520 ha         1 CQF       0.120500
     49 H221        -2.6460    -1.2760    -1.6160 hn         1 CQF       0.489000
     50 C21          6.8870     1.8790     1.0300 c3         1 CQF       0.070900
@<TRIPOS>BOND
     1     1     2 ar  
     2     1     6 ar  
     3     1    29 1   
     4     2     3 ar  
     5     2    13 1   
     6     3     4 ar  
     7     3    30 1   
     8     4     5 ar  
     9     4     7 1   
    10     5     6 ar  
    11     5    22 1   
    12     6    31 1   
    13     7     8 1   
    14     7    27 1   
    15     7    32 1   
    16     8     9 1   
    17     8    33 1   
    18     8    34 1   
    19     9    10 1   
    20     9    35 1   
    21     9    36 1   
    22    10    22 1   
    23    10    23 2   
    24    11    12 1   
    25    11    22 1   
    26    11    24 2   
    27    12    37 1   
    28    12    38 1   
    29    12    39 1   
    30    13    14 2   
    31    13    15 1   
    32    14    25 1   
    33    14    40 1   
    34    15    26 2   
    35    15    41 1   
    36    16    17 ar  
    37    16    21 ar  
    38    16    27 1   
    39    17    18 ar  
    40    17    45 1   
    41    18    19 ar  
    42    18    46 1   
    43    19    20 ar  
    44    19    28 1   
    45    20    21 ar  
    46    20    47 1   
    47    21    48 1   
    48    23    24 1   
    49    25    26 1   
    50    25    50 1   
    51    27    49 1   
    52    42    50 1   
    53    43    50 1   
    54    44    50 1   
@<TRIPOS>SUBSTRUCTURE
     1 CQF         1 TEMP              0 ****  ****    0 ROOT
