@<TRIPOS>MOLECULE
CQF
   50    54     1     0     0
SMALL
bcc


@<TRIPOS>ATOM
      1 C01          2.1420    -0.7980     1.4110 ca         1 CQF      -0.119000
      2 C02          2.5170    -0.2770     0.1710 ca         1 CQF       0.037000
      3 C03          1.6250    -0.4180    -0.8930 ca         1 CQF      -0.112000
      4 C04          0.3980    -1.0460    -0.7520 ca         1 CQF      -0.102300
      5 C05          0.0650    -1.5730     0.4950 ca         1 CQF       0.000800
      6 C06          0.9340    -1.4520     1.5690 ca         1 CQF      -0.116000
      7 C07         -0.5530    -1.1370    -1.9340 c3         1 CQF       0.289800
      8 C08         -0.6470    -2.5730    -2.4730 c3         1 CQF      -0.085400
      9 C09         -0.7520    -3.6630    -1.3910 c3         1 CQF      -0.107700
     10 C10         -1.5740    -3.2490    -0.2260 cc         1 CQF       0.383800
     11 C14         -2.1700    -2.1060     1.5200 cc         1 CQF       0.411800
     12 C15         -2.1740    -1.1070     2.6140 c3         1 CQF      -0.126400
     13 C16          3.7950     0.4020    -0.0110 cc         1 CQF      -0.236300
     14 C17          4.7970     0.6010     0.9230 cd         1 CQF      -0.114300
     15 C20          4.3080     1.0130    -1.1730 cc         1 CQF       0.324200
     16 C23         -2.1570     0.5020    -0.9510 ca         1 CQF       0.189600
     17 C24         -1.2480     1.5640    -0.8820 ca         1 CQF      -0.196000
     18 C25         -1.5620     2.7240    -0.1910 ca         1 CQF      -0.080000
     19 C26         -2.7910     2.8490     0.4340 ca         1 CQF      -0.025600
     20 C27         -3.7150     1.8160     0.3690 ca         1 CQF      -0.080000
     21 C28         -3.3960     0.6560    -0.3110 ca         1 CQF      -0.196000
     22 N11         -1.1490    -2.2800     0.6330 na         1 CQF      -0.276800
     23 N12         -2.7580    -3.6500     0.1270 nd         1 CQF      -0.358000
     24 N13         -3.1310    -2.9330     1.2240 nd         1 CQF      -0.368000
     25 N18          5.7810     1.2720     0.3100 na         1 CQF       0.117400
     26 N19          5.5020     1.5300    -0.9640 nd         1 CQF      -0.519800
     27 N22         -1.8880    -0.6580    -1.6320 nu         1 CQF      -0.778600
     28 CL2         -3.1780     4.3030     1.3050 cl         1 CQF      -0.123400
     29 H011         2.8000    -0.7120     2.2650 ha         1 CQF       0.135000
     30 H031         1.8810    -0.0150    -1.8660 ha         1 CQF       0.137000
     31 H061         0.6760    -1.8830     2.5280 ha         1 CQF       0.146000
     32 H071        -0.1300    -0.5220    -2.7360 h1         1 CQF       0.062700
     33 H082        -1.5050    -2.6280    -3.1470 hc         1 CQF       0.062200
     34 H081         0.2350    -2.7750    -3.0800 hc         1 CQF       0.062200
     35 H092        -1.1800    -4.5680    -1.8210 hc         1 CQF       0.072200
     36 H091         0.2490    -3.9210    -1.0370 hc         1 CQF       0.072200
     37 H153        -1.8870    -0.1210     2.2470 hc         1 CQF       0.063033
     38 H151        -3.1750    -1.0400     3.0330 hc         1 CQF       0.063033
     39 H152        -1.4900    -1.3800     3.4180 hc         1 CQF       0.063033
     40 H171         4.8760     0.3160     1.9600 h4         1 CQF       0.173000
     41 H201         3.8510     1.0960    -2.1480 h4         1 CQF       0.039100
     42 H212         7.8680     1.2060     0.3710 h1         1 CQF       0.059367
     43 H211         7.1480     2.7750     0.7810 h1         1 CQF       0.059367
     44 H213         7.0600     1.4310     1.9290 h1         1 CQF       0.059367
     45 H241        -0.2850     1.5040    -1.3710 ha         1 CQF       0.138500
     46 H251        -0.8420     3.5290    -0.1470 ha         1 CQF       0.143500
     47 H271        -4.6760     1.9040     0.8570 ha         1 CQF       0.143500
     48 H281        -4.1160    -0.1540    -0.3360 ha         1 CQF       0.138500
     49 H221        -2.6160    -1.3520    -1.6000 hn         1 CQF       0.433800
     50 C21          7.0390     1.6970     0.8760 c3         1 CQF       0.041600
@<TRIPOS>BOND
     1     1     2 ar  
     2     1     6 ar  
     3     1    29 1   
     4     2     3 ar  
     5     2    13 1   
     6     3     4 ar  
     7     3    30 1   
     8     4     5 ar  
     9     4     7 1   
    10     5     6 ar  
    11     5    22 1   
    12     6    31 1   
    13     7     8 1   
    14     7    27 1   
    15     7    32 1   
    16     8     9 1   
    17     8    33 1   
    18     8    34 1   
    19     9    10 1   
    20     9    35 1   
    21     9    36 1   
    22    10    22 1   
    23    10    23 2   
    24    11    12 1   
    25    11    22 1   
    26    11    24 2   
    27    12    37 1   
    28    12    38 1   
    29    12    39 1   
    30    13    14 2   
    31    13    15 1   
    32    14    25 1   
    33    14    40 1   
    34    15    26 2   
    35    15    41 1   
    36    16    17 ar  
    37    16    21 ar  
    38    16    27 1   
    39    17    18 ar  
    40    17    45 1   
    41    18    19 ar  
    42    18    46 1   
    43    19    20 ar  
    44    19    28 1   
    45    20    21 ar  
    46    20    47 1   
    47    21    48 1   
    48    23    24 1   
    49    25    26 1   
    50    25    50 1   
    51    27    49 1   
    52    42    50 1   
    53    43    50 1   
    54    44    50 1   
@<TRIPOS>SUBSTRUCTURE
     1 CQF         1 TEMP              0 ****  ****    0 ROOT
