@<TRIPOS>MOLECULE
CQG
   12    12     1     0     0
SMALL
No Charge or Current Charge


@<TRIPOS>ATOM
      1 C4          -0.1550    -1.2560    -0.0110 ca         1 CQG      -0.234000
      2 C3           1.2380    -1.1390     0.1050 ca         1 CQG       0.368400
      3 C2           1.1210     1.1740     0.0180 ca         1 CQG       0.368400
      4 C1          -0.2760     1.1440    -0.1020 ca         1 CQG      -0.234000
      5 C           -0.9240    -0.0950    -0.1160 ca         1 CQG       0.176100
      6 N            1.8740     0.0550     0.1200 nb         1 CQG      -0.688000
      7 H4          -0.6210    -2.2360    -0.0180 ha         1 CQG       0.130000
      8 H3           1.8650    -2.0260     0.1890 h4         1 CQG       0.018600
      9 H2           1.6570     2.1230     0.0320 h4         1 CQG       0.018600
     10 H1          -0.8300     2.0750    -0.1810 ha         1 CQG       0.130000
     11 H           -2.6390     0.7320    -0.2910 ho         1 CQG       0.471000
     12 O           -2.2770    -0.1770    -0.2300 oh         1 CQG      -0.524100
@<TRIPOS>BOND
     1     1     2 ar  
     2     1     5 ar  
     3     1     7 1   
     4     2     6 ar  
     5     2     8 1   
     6     3     4 ar  
     7     3     6 ar  
     8     3     9 1   
     9     4     5 ar  
    10     4    10 1   
    11     5    12 1   
    12    11    12 1   
@<TRIPOS>SUBSTRUCTURE
     1 CQG         1 TEMP              0 ****  ****    0 ROOT
