@<TRIPOS>MOLECULE
CQG
   12    12     1     0     0
SMALL
abcg2


@<TRIPOS>ATOM
      1 C4          -0.1540    -1.2360    -0.0110 ca         1 CQG      -0.234000
      2 C3           1.2180    -1.1090     0.1020 ca         1 CQG       0.368400
      3 C2           1.1230     1.1500     0.0190 ca         1 CQG       0.368400
      4 C1          -0.2570     1.1500    -0.1000 ca         1 CQG      -0.234000
      5 C           -0.9190    -0.0760    -0.1150 ca         1 CQG       0.176100
      6 N            1.8650     0.0530     0.1190 nb         1 CQG      -0.688000
      7 H4          -0.6190    -2.2130    -0.0200 ha         1 CQG       0.130000
      8 H3           1.8270    -2.0030     0.1850 h4         1 CQG       0.018600
      9 H2           1.6520     2.0970     0.0330 h4         1 CQG       0.018600
     10 H1          -0.7970     2.0860    -0.1790 ha         1 CQG       0.130000
     11 H           -2.6620     0.6720    -0.2950 ho         1 CQG       0.471000
     12 O           -2.2450    -0.1940    -0.2220 oh         1 CQG      -0.524100
@<TRIPOS>BOND
     1     1     2 ar  
     2     1     5 ar  
     3     1     7 1   
     4     2     6 ar  
     5     2     8 1   
     6     3     4 ar  
     7     3     6 ar  
     8     3     9 1   
     9     4     5 ar  
    10     4    10 1   
    11     5    12 1   
    12    11    12 1   
@<TRIPOS>SUBSTRUCTURE
     1 CQG         1 TEMP              0 ****  ****    0 ROOT
