@<TRIPOS>MOLECULE
CQK
   21    22     1     0     0
SMALL
No Charge or Current Charge


@<TRIPOS>ATOM
      1 CAG         -2.4040    -0.0820     0.0050 cc         1 CQK       0.542500
      2 CAH          1.3970     0.2440     0.0100 ca         1 CQK       0.279500
      3 CAJ          0.1070    -0.3350     0.0130 ca         1 CQK      -0.068000
      4 CAK          0.4750     2.3900    -0.0120 ca         1 CQK       0.332900
      5 CAL         -1.0440     0.4870     0.0030 ca         1 CQK      -0.090500
      6 CAM         -0.8330     1.8830    -0.0100 ca         1 CQK      -0.117000
      7 NAC         -4.4350    -0.3530     0.0040 na         1 CQK       0.114600
      8 NAD         -3.8920    -1.6130     0.0170 nd         1 CQK      -0.162800
      9 NAE         -3.4970     0.6480    -0.0040 nd         1 CQK      -0.509800
     10 NAF         -2.6020    -1.4320     0.0180 nc         1 CQK      -0.364000
     11 NAI          1.5720     1.6000    -0.0020 nb         1 CQK      -0.667000
     12 NAO          3.8570     0.0010    -0.0030 ns         1 CQK      -0.369400
     13 OAA          5.0930    -0.6900     0.3040 oh         1 CQK      -0.420100
     14 OAB          2.5670    -1.8910     0.0510 o          1 CQK      -0.568100
     15 H1           0.0150    -1.4180     0.0240 ha         1 CQK       0.171000
     16 H2           0.6520     3.4650    -0.0220 h4         1 CQK       0.027100
     17 H3          -1.6670     2.5800    -0.0190 ha         1 CQK       0.141000
     18 H4          -5.4430    -0.1910     0.0000 hn         1 CQK       0.410000
     19 H5           3.8520     1.0150     0.1200 hn         1 CQK       0.364500
     20 H6           5.6940    -0.4250    -0.4320 ho         1 CQK       0.445000
     21 CAN          2.6320    -0.6640     0.0240 c          1 CQK       0.509600
@<TRIPOS>BOND
     1     1     5 1   
     2     1     9 2   
     3     1    10 1   
     4     2     3 ar  
     5     2    11 ar  
     6     2    21 1   
     7     3     5 ar  
     8     3    15 1   
     9     4     6 ar  
    10     4    11 ar  
    11     4    16 1   
    12     5     6 ar  
    13     6    17 1   
    14     7     8 1   
    15     7     9 1   
    16     7    18 1   
    17     8    10 2   
    18    12    13 1   
    19    12    19 1   
    20    12    21 1   
    21    13    20 1   
    22    14    21 2   
@<TRIPOS>SUBSTRUCTURE
     1 CQK         1 TEMP              0 ****  ****    0 ROOT
