@<TRIPOS>MOLECULE
CQK
   21    22     1     0     0
SMALL
bcc


@<TRIPOS>ATOM
      1 CAG         -2.3120    -0.1100    -0.0130 cc         1 CQK       0.542500
      2 CAH          1.3950     0.2670     0.0620 ca         1 CQK       0.344800
      3 CAJ          0.1490    -0.3370     0.0400 ca         1 CQK      -0.151300
      4 CAK          0.4950     2.3560     0.0280 ca         1 CQK       0.398200
      5 CAL         -0.9780     0.4770     0.0100 ca         1 CQK      -0.090500
      6 CAM         -0.7980     1.8550     0.0040 ca         1 CQK      -0.200300
      7 NAC         -4.3280    -0.3580    -0.0410 na         1 CQK       0.164900
      8 NAD         -3.8420    -1.5630    -0.0410 nd         1 CQK      -0.162800
      9 NAE         -3.4330     0.5870    -0.0250 nd         1 CQK      -0.509800
     10 NAF         -2.5590    -1.4320    -0.0230 nc         1 CQK      -0.364000
     11 NAI          1.5700     1.5840     0.0560 nb         1 CQK      -0.667000
     12 NAO          3.7650     0.0960     0.0420 ns         1 CQK      -0.436400
     13 OAA          4.9510    -0.5370     0.2420 oh         1 CQK      -0.381100
     14 OAB          2.5520    -1.8130     0.1730 o          1 CQK      -0.568100
     15 H1           0.0630    -1.4140     0.0470 ha         1 CQK       0.189000
     16 H2           0.6620     3.4260     0.0240 h4         1 CQK       0.027100
     17 H3          -1.6370     2.5350    -0.0180 ha         1 CQK       0.159000
     18 H4          -5.3240    -0.1750    -0.0520 hn         1 CQK       0.359700
     19 H5           3.7790     1.1060     0.1010 hn         1 CQK       0.364500
     20 H6           5.3070    -0.7300    -0.6350 ho         1 CQK       0.406000
     21 CAN          2.6220    -0.5990     0.1060 c          1 CQK       0.576600
@<TRIPOS>BOND
     1     1     5 1   
     2     1     9 2   
     3     1    10 1   
     4     2     3 ar  
     5     2    11 ar  
     6     2    21 1   
     7     3     5 ar  
     8     3    15 1   
     9     4     6 ar  
    10     4    11 ar  
    11     4    16 1   
    12     5     6 ar  
    13     6    17 1   
    14     7     8 1   
    15     7     9 1   
    16     7    18 1   
    17     8    10 2   
    18    12    13 1   
    19    12    19 1   
    20    12    21 1   
    21    13    20 1   
    22    14    21 2   
@<TRIPOS>SUBSTRUCTURE
     1 CQK         1 TEMP              0 ****  ****    0 ROOT
