@<TRIPOS>MOLECULE
CQN
   61    63     1     0     0
SMALL
abcg2


@<TRIPOS>ATOM
      1 C1           2.2420    -0.4670    -1.5500 c3         1 CQN       0.131600
      2 C10          1.4780    -0.5120     2.8220 c5         1 CQN      -0.083900
      3 C11          1.3470     0.3740     1.5680 c5         1 CQN       0.181800
      4 C12         -1.7870     1.2530    -1.6750 c3         1 CQN       0.276100
      5 C13         -2.1190     2.1630    -0.5130 ca         1 CQN      -0.107300
      6 C14         -2.6890     3.4100    -0.7590 ca         1 CQN      -0.101000
      7 C15         -2.9690     4.2810     0.2840 ca         1 CQN      -0.114000
      8 C16         -2.6890     3.9110     1.5940 ca         1 CQN      -0.110000
      9 C17         -2.1300     2.6660     1.8470 ca         1 CQN      -0.114000
     10 C18         -1.8470     1.7960     0.8000 ca         1 CQN      -0.101000
     11 C19         -2.5360    -0.9010    -0.8170 ca         1 CQN       0.350000
     12 C2           0.9400    -0.0930    -0.8390 c3         1 CQN       0.188500
     13 C20         -3.8680    -0.4460    -0.8130 ca         1 CQN      -0.184500
     14 C21         -4.8970    -1.2370    -0.3260 ca         1 CQN      -0.072500
     15 C22         -4.6550    -2.5060     0.1800 ca         1 CQN      -0.165000
     16 C23         -3.3430    -2.9620     0.1950 ca         1 CQN      -0.072500
     17 C24         -2.3040    -2.1810    -0.2820 ca         1 CQN      -0.184500
     18 C3          -0.2240    -0.6330    -1.6830 c3         1 CQN       0.241800
     19 C4           4.5820    -0.4210    -1.3240 c3         1 CQN       0.163600
     20 C5           5.6840    -0.0730    -0.3360 c3         1 CQN      -0.063700
     21 C6           5.4560    -0.7420     1.0160 c3         1 CQN      -0.087100
     22 C7           7.0350    -0.4730    -0.9180 c3         1 CQN      -0.087100
     23 C8           1.2510    -1.8670     0.8770 c5         1 CQN       0.181800
     24 C9           1.0000    -1.8990     2.3760 c5         1 CQN      -0.083900
     25 N2           0.8370    -0.5220     0.5350 n3         1 CQN      -0.757600
     26 N3          -1.5200    -0.1140    -1.3070 nh         1 CQN      -0.829400
     27 O1           3.3420     0.0300    -0.8390 os         1 CQN      -0.458000
     28 H1           2.3140    -1.5610    -1.6490 h1         1 CQN       0.020700
     29 H2           2.2190    -0.0660    -2.5750 h1         1 CQN       0.020700
     30 H3           2.5200    -0.5560     3.1430 hc         1 CQN       0.045950
     31 H4           0.9030    -0.1280     3.6650 hc         1 CQN       0.045950
     32 H5           0.6500     1.2020     1.7190 h1         1 CQN       0.037450
     33 H6           2.3150     0.8140     1.3100 h1         1 CQN       0.037450
     34 H7          -2.5790     1.3220    -2.4320 h1         1 CQN       0.045700
     35 H8          -0.8920     1.6400    -2.1680 h1         1 CQN       0.045700
     36 H9          -2.9180     3.7040    -1.7780 ha         1 CQN       0.125000
     37 H10         -3.4120     5.2460     0.0740 ha         1 CQN       0.110500
     38 H11         -2.9100     4.5860     2.4110 ha         1 CQN       0.110000
     39 H12         -1.9150     2.3650     2.8650 ha         1 CQN       0.110500
     40 H13         -1.4140     0.8240     1.0020 ha         1 CQN       0.125000
     41 H14          0.8630     1.0010    -0.8380 h1         1 CQN       0.070700
     42 H15         -4.1200     0.5340    -1.1920 ha         1 CQN       0.112000
     43 H16         -5.9070    -0.8470    -0.3500 ha         1 CQN       0.104000
     44 H17         -5.4630    -3.1190     0.5570 ha         1 CQN       0.111000
     45 H18         -3.1120    -3.9410     0.5970 ha         1 CQN       0.104000
     46 H19         -1.3010    -2.5760    -0.2170 ha         1 CQN       0.112000
     47 H20         -0.0420    -0.3810    -2.7340 h1         1 CQN       0.044200
     48 H21         -0.2340    -1.7220    -1.6460 h1         1 CQN       0.044200
     49 H22          4.8000     0.0280    -2.3050 h1         1 CQN       0.020200
     50 H23          4.5620    -1.5130    -1.4730 h1         1 CQN       0.020200
     51 H24          5.6810     1.0140    -0.1950 hc         1 CQN       0.058700
     52 H25          6.2590    -0.4950     1.7130 hc         1 CQN       0.035033
     53 H26          4.5150    -0.4330     1.4710 hc         1 CQN       0.035033
     54 H27          5.4330    -1.8290     0.9100 hc         1 CQN       0.035033
     55 H28          7.2330     0.0260    -1.8680 hc         1 CQN       0.035033
     56 H29          7.8440    -0.2120    -0.2340 hc         1 CQN       0.035033
     57 H30          7.0880    -1.5510    -1.0910 hc         1 CQN       0.035033
     58 H31          2.3150    -2.0640     0.6710 h1         1 CQN       0.037450
     59 H32          0.6730    -2.6180     0.3340 h1         1 CQN       0.037450
     60 H33          1.5260    -2.7120     2.8770 hc         1 CQN       0.045950
     61 H34         -0.0680    -2.0220     2.5660 hc         1 CQN       0.045950
@<TRIPOS>BOND
     1     1    12 1   
     2     1    27 1   
     3     1    28 1   
     4     1    29 1   
     5     2     3 1   
     6     2    24 1   
     7     2    30 1   
     8     2    31 1   
     9     3    25 1   
    10     3    32 1   
    11     3    33 1   
    12     4     5 1   
    13     4    26 1   
    14     4    34 1   
    15     4    35 1   
    16     5     6 ar  
    17     5    10 ar  
    18     6     7 ar  
    19     6    36 1   
    20     7     8 ar  
    21     7    37 1   
    22     8     9 ar  
    23     8    38 1   
    24     9    10 ar  
    25     9    39 1   
    26    10    40 1   
    27    11    13 ar  
    28    11    17 ar  
    29    11    26 1   
    30    12    18 1   
    31    12    25 1   
    32    12    41 1   
    33    13    14 ar  
    34    13    42 1   
    35    14    15 ar  
    36    14    43 1   
    37    15    16 ar  
    38    15    44 1   
    39    16    17 ar  
    40    16    45 1   
    41    17    46 1   
    42    18    26 1   
    43    18    47 1   
    44    18    48 1   
    45    19    20 1   
    46    19    27 1   
    47    19    49 1   
    48    19    50 1   
    49    20    21 1   
    50    20    22 1   
    51    20    51 1   
    52    21    52 1   
    53    21    53 1   
    54    21    54 1   
    55    22    55 1   
    56    22    56 1   
    57    22    57 1   
    58    23    24 1   
    59    23    25 1   
    60    23    58 1   
    61    23    59 1   
    62    24    60 1   
    63    24    61 1   
@<TRIPOS>SUBSTRUCTURE
     1 CQN         1 TEMP              0 ****  ****    0 ROOT
