@<TRIPOS>MOLECULE
CQN
   61    63     1     0     0
SMALL
No Charge or Current Charge


@<TRIPOS>ATOM
      1 C1           2.3490    -0.8820    -1.3890 c3         1 CQN       0.131600
      2 C10          1.3620    -1.0580     3.0460 c5         1 CQN      -0.083900
      3 C11          1.9120    -0.4070     1.7520 c5         1 CQN       0.181800
      4 C12         -1.4510     1.5250    -1.4620 c3         1 CQN       0.276100
      5 C13         -2.0700     2.3100    -0.3080 ca         1 CQN      -0.107300
      6 C14         -3.1960     3.1310    -0.5230 ca         1 CQN      -0.101000
      7 C15         -3.7630     3.8490     0.5450 ca         1 CQN      -0.114000
      8 C16         -3.2100     3.7500     1.8330 ca         1 CQN      -0.110000
      9 C17         -2.0900     2.9320     2.0540 ca         1 CQN      -0.114000
     10 C18         -1.5220     2.2140     0.9870 ca         1 CQN      -0.101000
     11 C19         -2.6340    -0.6040    -0.8810 ca         1 CQN       0.350000
     12 C2           1.0580    -0.3960    -0.6500 c3         1 CQN       0.188500
     13 C20         -3.7940    -0.4650    -1.6660 ca         1 CQN      -0.184500
     14 C21         -4.9820    -1.1250    -1.3080 ca         1 CQN      -0.072500
     15 C22         -5.0170    -1.9260    -0.1550 ca         1 CQN      -0.165000
     16 C23         -3.8670    -2.0640     0.6390 ca         1 CQN      -0.072500
     17 C24         -2.6820    -1.4030     0.2740 ca         1 CQN      -0.184500
     18 C3          -0.1980    -0.6960    -1.5450 c3         1 CQN       0.241800
     19 C4           4.7560    -0.6280    -1.4300 c3         1 CQN       0.163600
     20 C5           5.9000     0.1840    -0.7750 c3         1 CQN      -0.063700
     21 C6           6.0010    -0.0570     0.7510 c3         1 CQN      -0.087100
     22 C7           7.2500    -0.1000    -1.4710 c3         1 CQN      -0.087100
     23 C8           0.8920    -2.3390     1.0000 c5         1 CQN       0.181800
     24 C9           0.7710    -2.4170     2.5480 c5         1 CQN      -0.083900
     25 N2           0.9130    -0.8760     0.7730 n3         1 CQN      -0.757600
     26 N3          -1.4470     0.0620    -1.2430 nh         1 CQN      -0.829400
     27 O1           3.5070    -0.2110    -0.8540 os         1 CQN      -0.458000
     28 H1           2.4470    -1.9710    -1.3000 h1         1 CQN       0.020700
     29 H2           2.2610    -0.6470    -2.4580 h1         1 CQN       0.020700
     30 H3           2.1430    -1.1890     3.8030 hc         1 CQN       0.045950
     31 H4           0.5790    -0.4330     3.4910 hc         1 CQN       0.045950
     32 H5           1.9570     0.6880     1.8240 h1         1 CQN       0.037450
     33 H6           2.9180    -0.7850     1.5270 h1         1 CQN       0.037450
     34 H7          -1.9940     1.7520    -2.3900 h1         1 CQN       0.045700
     35 H8          -0.4270     1.8920    -1.6100 h1         1 CQN       0.045700
     36 H9          -3.6340     3.2110    -1.5160 ha         1 CQN       0.125000
     37 H10         -4.6320     4.4810     0.3740 ha         1 CQN       0.110500
     38 H11         -3.6510     4.3050     2.6590 ha         1 CQN       0.110000
     39 H12         -1.6630     2.8510     3.0510 ha         1 CQN       0.110500
     40 H13         -0.6610     1.5740     1.1650 ha         1 CQN       0.125000
     41 H14          1.1410     0.6980    -0.6220 h1         1 CQN       0.070700
     42 H15         -3.7700     0.1490    -2.5610 ha         1 CQN       0.112000
     43 H16         -5.8730    -1.0150    -1.9230 ha         1 CQN       0.104000
     44 H17         -5.9360    -2.4360     0.1250 ha         1 CQN       0.111000
     45 H18         -3.8940    -2.6770     1.5380 ha         1 CQN       0.104000
     46 H19         -1.8030    -1.4920     0.9010 ha         1 CQN       0.112000
     47 H20          0.0680    -0.4840    -2.5900 h1         1 CQN       0.044200
     48 H21         -0.4030    -1.7750    -1.5050 h1         1 CQN       0.044200
     49 H22          4.7540    -0.4460    -2.5130 h1         1 CQN       0.020200
     50 H23          4.9220    -1.7010    -1.2630 h1         1 CQN       0.020200
     51 H24          5.6760     1.2480    -0.9280 hc         1 CQN       0.058700
     52 H25          6.8270     0.5230     1.1810 hc         1 CQN       0.035033
     53 H26          5.0800     0.2500     1.2600 hc         1 CQN       0.035033
     54 H27          6.1780    -1.1170     0.9680 hc         1 CQN       0.035033
     55 H28          7.1880     0.1240    -2.5430 hc         1 CQN       0.035033
     56 H29          8.0460     0.5210    -1.0430 hc         1 CQN       0.035033
     57 H30          7.5350    -1.1530    -1.3570 hc         1 CQN       0.035033
     58 H31          1.8250    -2.8120     0.6640 h1         1 CQN       0.037450
     59 H32          0.0560    -2.8420     0.4960 h1         1 CQN       0.037450
     60 H33          1.3160    -3.2790     2.9480 hc         1 CQN       0.045950
     61 H34         -0.2750    -2.5240     2.8590 hc         1 CQN       0.045950
@<TRIPOS>BOND
     1     1    12 1   
     2     1    27 1   
     3     1    28 1   
     4     1    29 1   
     5     2     3 1   
     6     2    24 1   
     7     2    30 1   
     8     2    31 1   
     9     3    25 1   
    10     3    32 1   
    11     3    33 1   
    12     4     5 1   
    13     4    26 1   
    14     4    34 1   
    15     4    35 1   
    16     5     6 ar  
    17     5    10 ar  
    18     6     7 ar  
    19     6    36 1   
    20     7     8 ar  
    21     7    37 1   
    22     8     9 ar  
    23     8    38 1   
    24     9    10 ar  
    25     9    39 1   
    26    10    40 1   
    27    11    13 ar  
    28    11    17 ar  
    29    11    26 1   
    30    12    18 1   
    31    12    25 1   
    32    12    41 1   
    33    13    14 ar  
    34    13    42 1   
    35    14    15 ar  
    36    14    43 1   
    37    15    16 ar  
    38    15    44 1   
    39    16    17 ar  
    40    16    45 1   
    41    17    46 1   
    42    18    26 1   
    43    18    47 1   
    44    18    48 1   
    45    19    20 1   
    46    19    27 1   
    47    19    49 1   
    48    19    50 1   
    49    20    21 1   
    50    20    22 1   
    51    20    51 1   
    52    21    52 1   
    53    21    53 1   
    54    21    54 1   
    55    22    55 1   
    56    22    56 1   
    57    22    57 1   
    58    23    24 1   
    59    23    25 1   
    60    23    58 1   
    61    23    59 1   
    62    24    60 1   
    63    24    61 1   
@<TRIPOS>SUBSTRUCTURE
     1 CQN         1 TEMP              0 ****  ****    0 ROOT
