@<TRIPOS>MOLECULE
CQO
   43    45     1     0     0
SMALL
No Charge or Current Charge


@<TRIPOS>ATOM
      1 C10         -2.5780    -0.3770    -0.4620 ca         1 CQO      -0.165500
      2 C13          3.5710    -2.1310     0.4420 ca         1 CQO      -0.171500
      3 C17          0.0860     3.9860    -0.1010 c3         1 CQO      -0.070400
      4 C22          6.0450    -0.7170    -0.1320 c3         1 CQO       0.149900
      5 C01         -0.1090    -0.2270    -0.4740 ca         1 CQO      -0.094000
      6 C02          1.1280    -0.8530    -0.1740 ca         1 CQO       0.006000
      7 C03          1.1180    -2.1530     0.3980 ca         1 CQO       0.239000
      8 C05         -1.2160    -2.2320     0.3790 ca         1 CQO       0.239000
      9 C06         -1.3050    -0.9340    -0.1920 ca         1 CQO       0.006000
     10 C07         -2.4050    -2.9330     0.6600 ca         1 CQO      -0.046500
     11 C08         -3.6650    -2.3730     0.3890 ca         1 CQO      -0.171500
     12 C09         -3.7520    -1.0870    -0.1760 ca         1 CQO       0.151100
     13 C11          2.3650    -0.2140    -0.4320 ca         1 CQO      -0.165500
     14 C12          3.5800    -0.8440    -0.1270 ca         1 CQO       0.151100
     15 C14          2.3470    -2.7730     0.6980 ca         1 CQO      -0.046500
     16 C16          0.0890     2.4990     0.3000 c3         1 CQO       0.058600
     17 C18          0.2920     4.9240     1.1050 c3         1 CQO       0.150800
     18 C23         -6.2200    -1.1220    -0.2110 c3         1 CQO       0.149900
     19 N04         -0.0300    -2.8160     0.6620 nb         1 CQO      -0.627000
     20 N19          0.2950     6.3410     0.6970 n8         1 CQO      -0.995200
     21 O20         -4.9570    -0.4810    -0.4650 os         1 CQO      -0.339600
     22 O21          4.7460    -0.1620    -0.4060 os         1 CQO      -0.339600
     23 S15         -0.1620     1.4270    -1.1810 ss         1 CQO      -0.213000
     24 H1          -2.6790     0.6120    -0.8970 ha         1 CQO       0.149500
     25 H2           4.4930    -2.6480     0.6910 ha         1 CQO       0.121000
     26 H3           0.8820     4.1600    -0.8360 hc         1 CQO       0.059700
     27 H4          -0.8660     4.2230    -0.5900 hc         1 CQO       0.059700
     28 H5           6.8300    -0.0110    -0.4290 h1         1 CQO       0.042200
     29 H6           6.1630    -0.9260     0.9390 h1         1 CQO       0.042200
     30 H7           6.1970    -1.6490    -0.6920 h1         1 CQO       0.042200
     31 H8          -2.3450    -3.9270     1.0970 ha         1 CQO       0.131000
     32 H9          -4.5540    -2.9510     0.6230 ha         1 CQO       0.121000
     33 H10          2.4070     0.7750    -0.8760 ha         1 CQO       0.149500
     34 H11          2.3470    -3.7670     1.1360 ha         1 CQO       0.131000
     35 H12          1.0450     2.2400     0.7720 h1         1 CQO       0.063200
     36 H13         -0.7180     2.3030     1.0190 h1         1 CQO       0.063200
     37 H14         -0.5130     4.7680     1.8380 h1         1 CQO       0.028200
     38 H15          1.2520     4.6960     1.5890 h1         1 CQO       0.028200
     39 H16         -6.3030    -2.0590    -0.7770 h1         1 CQO       0.042200
     40 H17         -6.3370    -1.3440     0.8570 h1         1 CQO       0.042200
     41 H18         -7.0460    -0.4680    -0.5150 h1         1 CQO       0.042200
     42 H19         -0.6330     6.5860     0.3300 hn         1 CQO       0.393000
     43 H20          0.3830     6.9300     1.5350 hn         1 CQO       0.393000
@<TRIPOS>BOND
     1     1     9 ar  
     2     1    12 ar  
     3     1    24 1   
     4     2    14 ar  
     5     2    15 ar  
     6     2    25 1   
     7     3    16 1   
     8     3    17 1   
     9     3    26 1   
    10     3    27 1   
    11     4    22 1   
    12     4    28 1   
    13     4    29 1   
    14     4    30 1   
    15     5     6 ar  
    16     5     9 ar  
    17     5    23 1   
    18     6     7 ar  
    19     6    13 ar  
    20     7    15 ar  
    21     7    19 ar  
    22     8     9 ar  
    23     8    10 ar  
    24     8    19 ar  
    25    10    11 ar  
    26    10    31 1   
    27    11    12 ar  
    28    11    32 1   
    29    12    21 1   
    30    13    14 ar  
    31    13    33 1   
    32    14    22 1   
    33    15    34 1   
    34    16    23 1   
    35    16    35 1   
    36    16    36 1   
    37    17    20 1   
    38    17    37 1   
    39    17    38 1   
    40    18    21 1   
    41    18    39 1   
    42    18    40 1   
    43    18    41 1   
    44    20    42 1   
    45    20    43 1   
@<TRIPOS>SUBSTRUCTURE
     1 CQO         1 TEMP              0 ****  ****    0 ROOT
