@<TRIPOS>MOLECULE
CQO
   43    45     1     0     0
SMALL
bcc


@<TRIPOS>ATOM
      1 C10         -2.6280    -0.3440    -0.4660 ca         1 CQO      -0.183500
      2 C13          3.4980    -2.0530     0.4810 ca         1 CQO      -0.189500
      3 C17          0.1220     3.9440    -0.1120 c3         1 CQO      -0.070400
      4 C22          5.8990    -0.7120    -0.1100 c3         1 CQO       0.126700
      5 C01         -0.1460    -0.1600    -0.4880 ca         1 CQO       0.032900
      6 C02          1.0910    -0.7560    -0.1980 ca         1 CQO      -0.059300
      7 C03          1.0740    -2.0580     0.4000 ca         1 CQO       0.369600
      8 C05         -1.2100    -2.1630     0.3700 ca         1 CQO       0.369600
      9 C06         -1.3320    -0.8570    -0.2110 ca         1 CQO      -0.059300
     10 C07         -2.3970    -2.8930     0.6560 ca         1 CQO      -0.129800
     11 C08         -3.6260    -2.3780     0.3940 ca         1 CQO      -0.189500
     12 C09         -3.7480    -1.0770    -0.1760 ca         1 CQO       0.151100
     13 C11          2.3400    -0.1410    -0.4570 ca         1 CQO      -0.183500
     14 C12          3.5150    -0.7630    -0.1280 ca         1 CQO       0.151100
     15 C14          2.3140    -2.6710     0.7290 ca         1 CQO      -0.129800
     16 C16          0.0730     2.4780     0.2820 c3         1 CQO       0.010700
     17 C18          0.3630     4.8350     1.1000 c3         1 CQO       0.150800
     18 C23         -6.1260    -1.2400    -0.2100 c3         1 CQO       0.126700
     19 N04         -0.0440    -2.7230     0.6640 nb         1 CQO      -0.627000
     20 N19          0.4100     6.2340     0.7040 n8         1 CQO      -0.884800
     21 O20         -4.9350    -0.5120    -0.4490 os         1 CQO      -0.316400
     22 O21          4.6530    -0.1060    -0.4050 os         1 CQO      -0.316400
     23 S15         -0.2090     1.4580    -1.2070 ss         1 CQO      -0.292000
     24 H1          -2.7320     0.6420    -0.8990 ha         1 CQO       0.167500
     25 H2           4.4190    -2.5520     0.7470 ha         1 CQO       0.139000
     26 H3           0.9150     4.1110    -0.8460 hc         1 CQO       0.059700
     27 H4          -0.8210     4.2280    -0.5890 hc         1 CQO       0.059700
     28 H5           6.6620    -0.0090    -0.4340 h1         1 CQO       0.042200
     29 H6           6.0240    -0.8940     0.9600 h1         1 CQO       0.042200
     30 H7           6.0370    -1.6510    -0.6500 h1         1 CQO       0.042200
     31 H8          -2.2950    -3.8780     1.0930 ha         1 CQO       0.149000
     32 H9          -4.5040    -2.9660     0.6270 ha         1 CQO       0.139000
     33 H10          2.3670     0.8320    -0.9310 ha         1 CQO       0.167500
     34 H11          2.2920    -3.6520     1.1860 ha         1 CQO       0.149000
     35 H12          1.0130     2.1690     0.7420 h1         1 CQO       0.063200
     36 H13         -0.7360     2.2910     0.9900 h1         1 CQO       0.063200
     37 H14         -0.4020     4.6160     1.8590 h1         1 CQO       0.028200
     38 H15          1.3250     4.5740     1.5480 h1         1 CQO       0.028200
     39 H16         -6.1660    -2.1620    -0.7970 h1         1 CQO       0.042200
     40 H17         -6.2540    -1.4850     0.8470 h1         1 CQO       0.042200
     41 H18         -6.9440    -0.5940    -0.5190 h1         1 CQO       0.042200
     42 H19         -0.5120     6.5280     0.4070 hn         1 CQO       0.337800
     43 H20          0.6300     6.8030     1.5110 hn         1 CQO       0.337800
@<TRIPOS>BOND
     1     1     9 ar  
     2     1    12 ar  
     3     1    24 1   
     4     2    14 ar  
     5     2    15 ar  
     6     2    25 1   
     7     3    16 1   
     8     3    17 1   
     9     3    26 1   
    10     3    27 1   
    11     4    22 1   
    12     4    28 1   
    13     4    29 1   
    14     4    30 1   
    15     5     6 ar  
    16     5     9 ar  
    17     5    23 1   
    18     6     7 ar  
    19     6    13 ar  
    20     7    15 ar  
    21     7    19 ar  
    22     8     9 ar  
    23     8    10 ar  
    24     8    19 ar  
    25    10    11 ar  
    26    10    31 1   
    27    11    12 ar  
    28    11    32 1   
    29    12    21 1   
    30    13    14 ar  
    31    13    33 1   
    32    14    22 1   
    33    15    34 1   
    34    16    23 1   
    35    16    35 1   
    36    16    36 1   
    37    17    20 1   
    38    17    37 1   
    39    17    38 1   
    40    18    21 1   
    41    18    39 1   
    42    18    40 1   
    43    18    41 1   
    44    20    42 1   
    45    20    43 1   
@<TRIPOS>SUBSTRUCTURE
     1 CQO         1 TEMP              0 ****  ****    0 ROOT
