@<TRIPOS>MOLECULE
CQP
   51    54     1     0     0
SMALL
No Charge or Current Charge


@<TRIPOS>ATOM
      1 Cl1         -7.5580     1.8370    -2.5500 cl         1 CQP      -0.202000
      2 C2          -5.9000     1.5770    -2.0260 ca         1 CQP       0.125000
      3 C3          -5.4980     1.9830    -0.7440 ca         1 CQP      -0.106000
      4 C4          -4.1710     1.7760    -0.3240 ca         1 CQP      -0.083500
      5 C5          -3.2420     1.1620    -1.1870 ca         1 CQP      -0.089300
      6 C6          -1.8070     0.9380    -0.7330 c3         1 CQP       0.207900
      7 O7          -1.7360    -0.3250    -0.0480 os         1 CQP      -0.447000
      8 C8          -0.4310    -0.7320     0.4240 c5         1 CQP       0.150300
      9 C10          0.0070     0.1560     1.6200 c5         1 CQP       0.118800
     10 N10          0.9790    -0.6800     2.3850 n7         1 CQP      -0.885400
     11 C13          0.7590    -2.1100     1.9550 c5         1 CQP       0.159500
     12 C14          1.9730    -2.6310     1.1210 c3         1 CQP       0.200800
     13 N15          3.1930    -1.9470     1.5730 n7         1 CQP      -0.860300
     14 S16          4.2950    -1.5030     0.4060 sy         1 CQP       1.149600
     15 O17          4.5160    -2.6980    -0.4130 o          1 CQP      -0.534500
     16 O18          5.3940    -0.8670     1.1350 o          1 CQP      -0.534500
     17 C19          3.3420    -0.2760    -0.5200 ca         1 CQP      -0.300500
     18 C20          2.9050    -0.6430    -1.8150 ca         1 CQP       0.025000
     19 C21          2.1480     0.2420    -2.5960 ca         1 CQP      -0.142000
     20 C22          1.8160     1.5100    -2.1030 ca         1 CQP      -0.028000
     21 C23          2.2400     1.8930    -0.8190 ca         1 CQP      -0.125000
     22 C24          1.8980     3.1660    -0.3250 ca         1 CQP       0.369900
     23 N25          2.2550     3.6070     0.9000 nb         1 CQP      -0.667000
     24 C26          2.9740     2.7690     1.6760 ca         1 CQP       0.344900
     25 C27          3.3640     1.4840     1.2680 ca         1 CQP      -0.168000
     26 C28          3.0020     1.0120    -0.0150 ca         1 CQP       0.066000
     27 C29         -3.6530     0.7540    -2.4720 ca         1 CQP      -0.083500
     28 C31         -0.5760    -2.0830     1.1570 c5         1 CQP      -0.102400
     29 C30         -4.9790     0.9630    -2.8910 ca         1 CQP      -0.106000
     30 H3          -6.2130     2.4570    -0.0760 ha         1 CQP       0.130500
     31 H4          -3.8660     2.0900     0.6720 ha         1 CQP       0.120500
     32 H6C1        -1.1400     0.9400    -1.6060 h1         1 CQP       0.034200
     33 H6C2        -1.5010     1.7600    -0.0740 h1         1 CQP       0.034200
     34 H8           0.2980    -0.7520    -0.3970 h1         1 CQP       0.041700
     35 H101         0.4550     1.1030     1.2950 h1         1 CQP       0.054200
     36 H102        -0.8600     0.3980     2.2510 h1         1 CQP       0.054200
     37 H10          0.7690    -0.5860     3.3900 hn         1 CQP       0.427000
     38 H13          0.6760    -2.7640     2.8360 h1         1 CQP       0.074700
     39 H141         2.0600    -3.7220     1.2130 h1         1 CQP       0.053200
     40 H142         1.7720    -2.4130     0.0630 h1         1 CQP       0.053200
     41 H15          2.8150    -1.0310     1.8390 hn         1 CQP       0.508000
     42 H20          3.1460    -1.6200    -2.2300 ha         1 CQP       0.147000
     43 H21          1.8190    -0.0560    -3.5880 ha         1 CQP       0.126000
     44 H22          1.2290     2.1900    -2.7170 ha         1 CQP       0.121000
     45 H24          1.3130     3.8590    -0.9300 h4         1 CQP       0.020100
     46 H26          3.2460     3.1400     2.6630 h4         1 CQP       0.024100
     47 H27          3.9320     0.8930     1.9740 ha         1 CQP       0.137000
     48 H29         -2.9450     0.2750    -3.1460 ha         1 CQP       0.120500
     49 H311        -1.4420    -2.0920     1.8280 hc         1 CQP       0.068700
     50 H312        -0.6790    -2.9300     0.4700 hc         1 CQP       0.068700
     51 H30         -5.2940     0.6480    -3.8830 ha         1 CQP       0.130500
@<TRIPOS>BOND
     1     1     2 1   
     2     2     3 ar  
     3     2    29 ar  
     4     3     4 ar  
     5     3    30 1   
     6     4     5 ar  
     7     4    31 1   
     8     5     6 1   
     9     5    27 ar  
    10     6     7 1   
    11     6    32 1   
    12     6    33 1   
    13     7     8 1   
    14     8     9 1   
    15     8    28 1   
    16     8    34 1   
    17     9    10 1   
    18     9    35 1   
    19     9    36 1   
    20    10    11 1   
    21    10    37 1   
    22    11    12 1   
    23    11    28 1   
    24    11    38 1   
    25    12    13 1   
    26    12    39 1   
    27    12    40 1   
    28    13    14 1   
    29    13    41 1   
    30    14    15 2   
    31    14    16 2   
    32    14    17 1   
    33    17    18 ar  
    34    17    26 ar  
    35    18    19 ar  
    36    18    42 1   
    37    19    20 ar  
    38    19    43 1   
    39    20    21 ar  
    40    20    44 1   
    41    21    22 ar  
    42    21    26 ar  
    43    22    23 ar  
    44    22    45 1   
    45    23    24 ar  
    46    24    25 ar  
    47    24    46 1   
    48    25    26 ar  
    49    25    47 1   
    50    27    29 ar  
    51    27    48 1   
    52    28    49 1   
    53    28    50 1   
    54    29    51 1   
@<TRIPOS>SUBSTRUCTURE
     1 CQP         1 TEMP              0 ****  ****    0 ROOT
