@<TRIPOS>MOLECULE
CQP
   51    54     1     0     0
SMALL
abcg2


@<TRIPOS>ATOM
      1 CL1         -8.0090     1.6100    -2.4250 cl         1 CQP      -0.202000
      2 C2          -6.4240     1.4600    -1.7380 ca         1 CQP       0.125000
      3 C3          -6.0130     2.3590    -0.7680 ca         1 CQP      -0.106000
      4 C4          -4.7430     2.2240    -0.2220 ca         1 CQP      -0.083500
      5 C5          -3.8850     1.2140    -0.6370 ca         1 CQP      -0.089300
      6 C6          -2.5030     1.0930    -0.0630 c3         1 CQP       0.207900
      7 O7          -2.2940    -0.2380     0.3480 os         1 CQP      -0.447000
      8 C8          -0.9500    -0.5510     0.6060 c5         1 CQP       0.150300
      9 C10         -0.3870     0.0700     1.8970 c5         1 CQP       0.118800
     10 N10          0.5840    -0.8970     2.4180 n7         1 CQP      -0.885400
     11 C13          0.5330    -2.1150     1.6050 c5         1 CQP       0.159500
     12 C14          1.7260    -2.1460     0.6450 c3         1 CQP       0.200800
     13 N15          2.9210    -1.8620     1.4250 n7         1 CQP      -0.860300
     14 S16          4.3370    -1.6200     0.6420 sy         1 CQP       1.149600
     15 O17          4.6570    -2.8450    -0.0700 o          1 CQP      -0.534500
     16 O18          5.2790    -1.0970     1.6200 o          1 CQP      -0.534500
     17 C19          4.0160    -0.3730    -0.5890 ca         1 CQP      -0.300500
     18 C20          4.1540    -0.7250    -1.9070 ca         1 CQP       0.025000
     19 C21          3.8640     0.1920    -2.9340 ca         1 CQP      -0.142000
     20 C22          3.4110     1.4410    -2.6230 ca         1 CQP      -0.028000
     21 C23          3.2520     1.8230    -1.2740 ca         1 CQP      -0.125000
     22 C24          2.7700     3.1100    -0.9360 ca         1 CQP       0.369900
     23 N25          2.6000     3.5290     0.2860 nb         1 CQP      -0.667000
     24 C26          2.9220     2.6800     1.2840 ca         1 CQP       0.344900
     25 C27          3.4000     1.4130     1.0930 ca         1 CQP      -0.168000
     26 C28          3.5710     0.9280    -0.2240 ca         1 CQP       0.066000
     27 C29         -4.3240     0.3230    -1.6140 ca         1 CQP      -0.083500
     28 C31         -0.7810    -2.0460     0.8360 c5         1 CQP      -0.102400
     29 C30         -5.5890     0.4380    -2.1670 ca         1 CQP      -0.106000
     30 H3          -6.6710     3.1480    -0.4310 ha         1 CQP       0.130500
     31 H4          -4.4250     2.9220     0.5430 ha         1 CQP       0.120500
     32 H6C1        -1.7620     1.3730    -0.8260 h1         1 CQP       0.034200
     33 H6C2        -2.3850     1.7980     0.7700 h1         1 CQP       0.034200
     34 H8          -0.3370    -0.2320    -0.2510 h1         1 CQP       0.041700
     35 H101         0.0800     1.0410     1.7140 h1         1 CQP       0.054200
     36 H102        -1.2060     0.2280     2.6070 h1         1 CQP       0.054200
     37 H10          0.3870    -1.1110     3.3840 hn         1 CQP       0.427000
     38 H13          0.5890    -2.9920     2.2510 h1         1 CQP       0.074700
     39 H141         1.7990    -3.1280     0.1770 h1         1 CQP       0.053200
     40 H142         1.5810    -1.4050    -0.1520 h1         1 CQP       0.053200
     41 H15          2.7080    -1.1480     2.1250 hn         1 CQP       0.508000
     42 H20          4.4840    -1.7190    -2.1740 ha         1 CQP       0.147000
     43 H21          3.9910    -0.1120    -3.9640 ha         1 CQP       0.126000
     44 H22          3.1690     2.1500    -3.4040 ha         1 CQP       0.121000
     45 H24          2.5220     3.7990    -1.7390 h4         1 CQP       0.020100
     46 H26          2.7860     3.0560     2.2910 h4         1 CQP       0.024100
     47 H27          3.6620     0.8310     1.9620 ha         1 CQP       0.137000
     48 H29         -3.6750    -0.4730    -1.9570 ha         1 CQP       0.120500
     49 H311        -1.5990    -2.4150     1.4600 hc         1 CQP       0.068700
     50 H312        -0.7730    -2.6260    -0.0880 hc         1 CQP       0.068700
     51 H30         -5.9190    -0.2600    -2.9250 ha         1 CQP       0.130500
@<TRIPOS>BOND
     1     1     2 1   
     2     2     3 ar  
     3     2    29 ar  
     4     3     4 ar  
     5     3    30 1   
     6     4     5 ar  
     7     4    31 1   
     8     5     6 1   
     9     5    27 ar  
    10     6     7 1   
    11     6    32 1   
    12     6    33 1   
    13     7     8 1   
    14     8     9 1   
    15     8    28 1   
    16     8    34 1   
    17     9    10 1   
    18     9    35 1   
    19     9    36 1   
    20    10    11 1   
    21    10    37 1   
    22    11    12 1   
    23    11    28 1   
    24    11    38 1   
    25    12    13 1   
    26    12    39 1   
    27    12    40 1   
    28    13    14 1   
    29    13    41 1   
    30    14    15 2   
    31    14    16 2   
    32    14    17 1   
    33    17    18 ar  
    34    17    26 ar  
    35    18    19 ar  
    36    18    42 1   
    37    19    20 ar  
    38    19    43 1   
    39    20    21 ar  
    40    20    44 1   
    41    21    22 ar  
    42    21    26 ar  
    43    22    23 ar  
    44    22    45 1   
    45    23    24 ar  
    46    24    25 ar  
    47    24    46 1   
    48    25    26 ar  
    49    25    47 1   
    50    27    29 ar  
    51    27    48 1   
    52    28    49 1   
    53    28    50 1   
    54    29    51 1   
@<TRIPOS>SUBSTRUCTURE
     1 CQP         1 TEMP              0 ****  ****    0 ROOT
