@<TRIPOS>MOLECULE
CQQ
   66    69     1     0     0
SMALL
No Charge or Current Charge


@<TRIPOS>ATOM
      1 C01        -10.2460     1.3420    -0.2490 ca         1 CQQ       0.359900
      2 N02        -11.0850     2.3010     0.2070 nb         1 CQQ      -0.671000
      3 C03        -10.5510     3.3320     0.8980 ca         1 CQQ       0.348900
      4 C04         -9.1790     3.4400     1.1590 ca         1 CQQ      -0.173000
      5 C05         -8.3100     2.4450     0.6860 ca         1 CQQ      -0.028000
      6 C06         -8.8410     1.3520    -0.0480 cp         1 CQQ      -0.215500
      7 C07         -7.9660     0.2540    -0.5790 cp         1 CQQ       0.233500
      8 N08         -6.7160     0.1620    -0.0800 nb         1 CQQ      -0.255000
      9 C09         -8.3860    -0.6640    -1.5720 ca         1 CQQ      -0.267000
     10 C10         -7.4800    -1.6490    -1.9950 ca         1 CQQ       0.148900
     11 N11         -6.2410    -1.7300    -1.4780 nb         1 CQQ      -0.229000
     12 C12         -5.9260    -0.8230    -0.5360 ca         1 CQQ       0.393900
     13 N13         -4.6470    -0.8360     0.0070 nu         1 CQQ      -0.927900
     14 C14         -3.5540    -1.7040    -0.0740 ca         1 CQQ       0.345000
     15 C15         -2.2700    -1.1780     0.1390 ca         1 CQQ      -0.198000
     16 C16         -3.7050    -3.0790    -0.3230 ca         1 CQQ      -0.164000
     17 C17         -2.5790    -3.9140    -0.3860 ca         1 CQQ      -0.057000
     18 C18         -1.2980    -3.3760    -0.1880 ca         1 CQQ      -0.200000
     19 C19         -1.1280    -2.0080     0.0840 ca         1 CQQ       0.012000
     20 N20          0.2010    -1.5400     0.2760 ns         1 CQQ      -0.144000
     21 C21          0.7180    -0.3100     0.6660 c          1 CQQ       0.628700
     22 O22          0.0170     0.6530     0.9570 o          1 CQQ      -0.582100
     23 C23          2.2330    -0.2190     0.7230 ca         1 CQQ      -0.190600
     24 C24          2.8420     0.9940     1.1170 ca         1 CQQ      -0.040000
     25 C25          4.2410     1.1140     1.1810 ca         1 CQQ      -0.166000
     26 C26          3.0700    -1.3110     0.3920 ca         1 CQQ      -0.040000
     27 C27          4.4690    -1.1840     0.4580 ca         1 CQQ      -0.166000
     28 C28          5.0700     0.0220     0.8550 ca         1 CQQ       0.012000
     29 N29          6.4900     0.0690     0.8930 ns         1 CQQ      -0.152000
     30 C30          7.3830     1.0470     1.3120 c          1 CQQ       0.608100
     31 O31          7.0560     2.1230     1.7990 o          1 CQQ      -0.564100
     32 C32          8.8600     0.6580     1.1570 c3         1 CQQ      -0.160400
     33 C33          9.5370     1.4330    -0.0010 c3         1 CQQ      -0.066400
     34 C34         11.0280     1.0640    -0.1810 c3         1 CQQ       0.164800
     35 N35         11.7580     1.8870    -1.1780 n3         1 CQQ      -0.709600
     36 C36         13.2190     1.6550    -1.1260 c3         1 CQQ       0.148600
     37 C37         11.2320     1.7660    -2.5600 c3         1 CQQ       0.148600
     38 H1         -10.7300     0.5280    -0.7860 h4         1 CQQ       0.020100
     39 H2         -11.2470     4.0910     1.2540 h4         1 CQQ       0.021100
     40 H3          -8.7980     4.2890     1.7200 ha         1 CQQ       0.128000
     41 H4          -7.2430     2.5290     0.8840 ha         1 CQQ       0.140000
     42 H5          -9.3730    -0.6180    -2.0190 ha         1 CQQ       0.138000
     43 H6          -7.7450    -2.3780    -2.7600 h4         1 CQQ       0.024100
     44 H7          -4.4450     0.0190     0.5230 hn         1 CQQ       0.514000
     45 H8          -2.1770    -0.1160     0.3300 ha         1 CQQ       0.147000
     46 H9          -4.6900    -3.5130    -0.4520 ha         1 CQQ       0.151000
     47 H10         -2.7000    -4.9780    -0.5810 ha         1 CQQ       0.113000
     48 H11         -0.4320    -4.0330    -0.2380 ha         1 CQQ       0.110000
     49 H12          0.9030    -2.2420     0.0890 hn         1 CQQ       0.152000
     50 H13          2.2310     1.8570     1.3750 ha         1 CQQ       0.125000
     51 H14          4.6570     2.0700     1.4820 ha         1 CQQ       0.133500
     52 H15          2.6590    -2.2690     0.0800 ha         1 CQQ       0.125000
     53 H16          5.0900    -2.0390     0.1980 ha         1 CQQ       0.133500
     54 H17          6.9340    -0.7690     0.5400 hn         1 CQQ       0.149000
     55 H18          9.3850     0.9010     2.0900 hc         1 CQQ       0.058700
     56 H19          8.9470    -0.4160     0.9530 hc         1 CQQ       0.058700
     57 H20          8.9910     1.2270    -0.9290 hc         1 CQQ       0.065700
     58 H21         11.5140     1.1780     0.7980 h1         1 CQQ       0.025700
     59 H22         11.0980     0.0020    -0.4510 h1         1 CQQ       0.025700
     60 H24         13.4620     0.6210    -1.4080 h1         1 CQQ       0.031367
     61 H25         13.7460     2.3320    -1.8110 h1         1 CQQ       0.031367
     62 H26         13.6050     1.8340    -0.1130 h1         1 CQQ       0.031367
     63 H27         10.1890     2.1010    -2.6210 h1         1 CQQ       0.031367
     64 H28         11.8160     2.3880    -3.2520 h1         1 CQQ       0.031367
     65 H29         11.2840     0.7260    -2.9090 h1         1 CQQ       0.031367
     66 H30          9.4580     2.5110     0.1880 hc         1 CQQ       0.065700
@<TRIPOS>BOND
     1     1     2 ar  
     2     1     6 ar  
     3     1    38 1   
     4     2     3 ar  
     5     3     4 ar  
     6     3    39 1   
     7     4     5 ar  
     8     4    40 1   
     9     5     6 ar  
    10     5    41 1   
    11     6     7 1   
    12     7     8 ar  
    13     7     9 ar  
    14     8    12 ar  
    15     9    10 ar  
    16     9    42 1   
    17    10    11 ar  
    18    10    43 1   
    19    11    12 ar  
    20    12    13 1   
    21    13    14 1   
    22    13    44 1   
    23    14    15 ar  
    24    14    16 ar  
    25    15    19 ar  
    26    15    45 1   
    27    16    17 ar  
    28    16    46 1   
    29    17    18 ar  
    30    17    47 1   
    31    18    19 ar  
    32    18    48 1   
    33    19    20 1   
    34    20    21 1   
    35    20    49 1   
    36    21    22 2   
    37    21    23 1   
    38    23    24 ar  
    39    23    26 ar  
    40    24    25 ar  
    41    24    50 1   
    42    25    28 ar  
    43    25    51 1   
    44    26    27 ar  
    45    26    52 1   
    46    27    28 ar  
    47    27    53 1   
    48    28    29 1   
    49    29    30 1   
    50    29    54 1   
    51    30    31 2   
    52    30    32 1   
    53    32    33 1   
    54    32    55 1   
    55    32    56 1   
    56    33    34 1   
    57    33    57 1   
    58    33    66 1   
    59    34    35 1   
    60    34    58 1   
    61    34    59 1   
    62    35    36 1   
    63    35    37 1   
    64    36    60 1   
    65    36    61 1   
    66    36    62 1   
    67    37    63 1   
    68    37    64 1   
    69    37    65 1   
@<TRIPOS>SUBSTRUCTURE
     1 CQQ         1 TEMP              0 ****  ****    0 ROOT
