@<TRIPOS>MOLECULE
CQQ
   66    69     1     0     0
SMALL
abcg2


@<TRIPOS>ATOM
      1 C01         -9.8940     1.5190     1.0880 ca         1 CQQ       0.359900
      2 N02        -10.5070     2.6360     1.4520 nb         1 CQQ      -0.671000
      3 C03         -9.8380     3.7780     1.3450 ca         1 CQQ       0.348900
      4 C04         -8.5310     3.8500     0.8850 ca         1 CQQ      -0.173000
      5 C05         -7.8950     2.6800     0.5140 ca         1 CQQ      -0.028000
      6 C06         -8.5880     1.4750     0.6030 cp         1 CQQ      -0.215500
      7 C07         -7.9510     0.2040     0.2100 cp         1 CQQ       0.233500
      8 N08         -6.6280     0.1890     0.1840 nb         1 CQQ      -0.255000
      9 C09         -8.6910    -0.9280    -0.1360 ca         1 CQQ      -0.267000
     10 C10         -7.9620    -2.0470    -0.4860 ca         1 CQQ       0.148900
     11 N11         -6.6360    -2.0770    -0.5100 nb         1 CQQ      -0.229000
     12 C12         -6.0230    -0.9460    -0.1760 ca         1 CQQ       0.393900
     13 N13         -4.6650    -0.8700    -0.1780 nu         1 CQQ      -0.927900
     14 C14         -3.6790    -1.8040    -0.4800 ca         1 CQQ       0.345000
     15 C15         -2.3630    -1.3360    -0.3650 ca         1 CQQ      -0.198000
     16 C16         -3.9180    -3.1200    -0.8730 ca         1 CQQ      -0.164000
     17 C17         -2.8320    -3.9440    -1.1370 ca         1 CQQ      -0.057000
     18 C18         -1.5310    -3.4970    -1.0240 ca         1 CQQ      -0.200000
     19 C19         -1.2890    -2.1750    -0.6370 ca         1 CQQ       0.012000
     20 N20          0.0500    -1.7880    -0.5370 ns         1 CQQ      -0.144000
     21 C21          0.5740    -0.5510    -0.3260 c          1 CQQ       0.628700
     22 O22         -0.1000     0.4600    -0.2250 o          1 CQQ      -0.582100
     23 C23          2.0590    -0.5000    -0.2410 ca         1 CQQ      -0.190600
     24 C24          2.6960     0.6950    -0.5610 ca         1 CQQ      -0.040000
     25 C25          4.0710     0.8300    -0.4900 ca         1 CQQ      -0.166000
     26 C26          2.8450    -1.5700     0.1850 ca         1 CQQ      -0.040000
     27 C27          4.2170    -1.4440     0.2780 ca         1 CQQ      -0.166000
     28 C28          4.8540    -0.2460    -0.0610 ca         1 CQQ       0.012000
     29 N29          6.2380    -0.2140     0.0680 ns         1 CQQ      -0.152000
     30 C30          7.1090     0.8090    -0.1660 c          1 CQQ       0.608100
     31 O31          6.7690     1.9000    -0.5820 o          1 CQQ      -0.564100
     32 C32          8.5450     0.4550     0.1540 c3         1 CQQ      -0.160400
     33 C33          9.5260     1.5760    -0.1450 c3         1 CQQ      -0.066400
     34 C34         10.9400     1.1740     0.2530 c3         1 CQQ       0.164800
     35 N35         11.9120     2.2390     0.0850 n3         1 CQQ      -0.709600
     36 C36         13.1560     1.9120     0.7490 c3         1 CQQ       0.148600
     37 C37         12.1520     2.5560    -1.3070 c3         1 CQQ       0.148600
     38 H1         -10.4680     0.6060     1.2060 h4         1 CQQ       0.020100
     39 H2         -10.3650     4.6790     1.6400 h4         1 CQQ       0.021100
     40 H3          -8.0280     4.8050     0.8160 ha         1 CQQ       0.128000
     41 H4          -6.8760     2.6950     0.1500 ha         1 CQQ       0.140000
     42 H5          -9.7700    -0.9440    -0.1540 ha         1 CQQ       0.138000
     43 H6          -8.4670    -2.9640    -0.7670 h4         1 CQQ       0.024100
     44 H7          -4.3250     0.0400     0.0970 hn         1 CQQ       0.514000
     45 H8          -2.1960    -0.3130    -0.0670 ha         1 CQQ       0.147000
     46 H9          -4.9220    -3.4940    -0.9740 ha         1 CQQ       0.151000
     47 H10         -3.0140    -4.9670    -1.4400 ha         1 CQQ       0.113000
     48 H11         -0.7030    -4.1630    -1.2350 ha         1 CQQ       0.110000
     49 H12          0.7070    -2.5290    -0.7260 hn         1 CQQ       0.152000
     50 H13          2.1110     1.5440    -0.8870 ha         1 CQQ       0.125000
     51 H14          4.5200     1.7690    -0.7660 ha         1 CQQ       0.133500
     52 H15          2.4020    -2.5130     0.4810 ha         1 CQQ       0.125000
     53 H16          4.8020    -2.2860     0.6270 ha         1 CQQ       0.133500
     54 H17          6.6510    -1.0710     0.4070 hn         1 CQQ       0.149000
     55 H18          8.5980     0.1770     1.2120 hc         1 CQQ       0.058700
     56 H19          8.8170    -0.4490    -0.4000 hc         1 CQQ       0.058700
     57 H20          9.4770     1.8240    -1.2080 hc         1 CQQ       0.065700
     58 H21         10.9330     0.8950     1.3110 h1         1 CQQ       0.025700
     59 H22         11.2380     0.2640    -0.3010 h1         1 CQQ       0.025700
     60 H24         13.6490     1.0170     0.3350 h1         1 CQQ       0.031367
     61 H25         13.8560     2.7440     0.6620 h1         1 CQQ       0.031367
     62 H26         12.9810     1.7320     1.8110 h1         1 CQQ       0.031367
     63 H27         11.2390     2.8950    -1.7960 h1         1 CQQ       0.031367
     64 H28         12.8780     3.3660    -1.3830 h1         1 CQQ       0.031367
     65 H29         12.5420     1.7010    -1.8820 h1         1 CQQ       0.031367
     66 H30          9.2480     2.4780     0.4050 hc         1 CQQ       0.065700
@<TRIPOS>BOND
     1     1     2 ar  
     2     1     6 ar  
     3     1    38 1   
     4     2     3 ar  
     5     3     4 ar  
     6     3    39 1   
     7     4     5 ar  
     8     4    40 1   
     9     5     6 ar  
    10     5    41 1   
    11     6     7 1   
    12     7     8 ar  
    13     7     9 ar  
    14     8    12 ar  
    15     9    10 ar  
    16     9    42 1   
    17    10    11 ar  
    18    10    43 1   
    19    11    12 ar  
    20    12    13 1   
    21    13    14 1   
    22    13    44 1   
    23    14    15 ar  
    24    14    16 ar  
    25    15    19 ar  
    26    15    45 1   
    27    16    17 ar  
    28    16    46 1   
    29    17    18 ar  
    30    17    47 1   
    31    18    19 ar  
    32    18    48 1   
    33    19    20 1   
    34    20    21 1   
    35    20    49 1   
    36    21    22 2   
    37    21    23 1   
    38    23    24 ar  
    39    23    26 ar  
    40    24    25 ar  
    41    24    50 1   
    42    25    28 ar  
    43    25    51 1   
    44    26    27 ar  
    45    26    52 1   
    46    27    28 ar  
    47    27    53 1   
    48    28    29 1   
    49    29    30 1   
    50    29    54 1   
    51    30    31 2   
    52    30    32 1   
    53    32    33 1   
    54    32    55 1   
    55    32    56 1   
    56    33    34 1   
    57    33    57 1   
    58    33    66 1   
    59    34    35 1   
    60    34    58 1   
    61    34    59 1   
    62    35    36 1   
    63    35    37 1   
    64    36    60 1   
    65    36    61 1   
    66    36    62 1   
    67    37    63 1   
    68    37    64 1   
    69    37    65 1   
@<TRIPOS>SUBSTRUCTURE
     1 CQQ         1 TEMP              0 ****  ****    0 ROOT
