@<TRIPOS>MOLECULE
CQR
   32    33     1     0     0
SMALL
abcg2


@<TRIPOS>ATOM
      1 N           -1.1550     3.4150    -0.3740 n8         1 CQR      -0.991200
      2 CA1         -2.1270     2.3450    -0.4130 c3         1 CQR       0.113500
      3 C1          -1.4640     1.0130    -0.4700 cc         1 CQR       0.507900
      4 N2          -0.2070     0.8140    -0.2640 nd         1 CQR      -0.658300
      5 N3          -2.1830    -0.1320    -0.7310 n          1 CQR      -0.306300
      6 C2          -1.3270    -1.2010    -0.6200 c          1 CQR       0.538200
      7 O2          -1.6230    -2.3750    -0.7370 o          1 CQR      -0.520000
      8 CA2         -0.0190    -0.5590    -0.3490 cd         1 CQR       0.032400
      9 CA3         -3.6150    -0.2500    -0.8040 c3         1 CQR      -0.059000
     10 CB2          1.1250    -1.2590    -0.2220 ce         1 CQR      -0.107200
     11 CG2          2.4710    -0.7860     0.0190 ca         1 CQR      -0.071800
     12 CD1          2.8210     0.5660     0.1380 ca         1 CQR      -0.053000
     13 CD2          3.4960    -1.7350     0.1350 ca         1 CQR      -0.053000
     14 CE1          4.1300     0.9460     0.3620 ca         1 CQR      -0.188500
     15 CE2          4.8080    -1.3680     0.3600 ca         1 CQR      -0.188500
     16 CZ           5.1350    -0.0170     0.4760 ca         1 CQR       0.127100
     17 OH           6.4210     0.3000     0.6940 oh         1 CQR      -0.543100
     18 C           -4.3030    -0.2580     0.5820 c          1 CQR       0.710000
     19 O           -3.5760    -0.0930     1.5740 o          1 CQR      -0.717000
     20 OXT         -5.5350    -0.4260     0.5420 o          1 CQR      -0.717000
     21 HN1         -1.6470     4.2940    -0.2910 hn         1 CQR       0.395000
     22 HN2         -0.5900     3.3280     0.4610 hn         1 CQR       0.395000
     23 HA11        -2.8200     2.3180     0.4400 h1         1 CQR       0.067700
     24 HA12        -2.7560     2.4620    -1.3010 h1         1 CQR       0.067700
     25 HA31        -4.0170     0.5630    -1.4130 h1         1 CQR       0.045700
     26 HA32        -3.8520    -1.1720    -1.3360 h1         1 CQR       0.045700
     27 HB2          1.0200    -2.3360    -0.3160 ha         1 CQR       0.183000
     28 HD1          2.0580     1.3260     0.0540 ha         1 CQR       0.133000
     29 HD2          3.2570    -2.7880     0.0460 ha         1 CQR       0.133000
     30 HE1          4.3740     1.9980     0.4510 ha         1 CQR       0.111000
     31 HE2          5.5810    -2.1200     0.4460 ha         1 CQR       0.111000
     32 HOH          6.5300     1.2560     0.7500 ho         1 CQR       0.458000
@<TRIPOS>BOND
     1     1     2 1   
     2     1    21 1   
     3     1    22 1   
     4     2     3 1   
     5     2    23 1   
     6     2    24 1   
     7     3     4 2   
     8     3     5 1   
     9     4     8 1   
    10     5     6 1   
    11     5     9 1   
    12     6     7 2   
    13     6     8 1   
    14     8    10 2   
    15     9    18 1   
    16     9    25 1   
    17     9    26 1   
    18    10    11 1   
    19    10    27 1   
    20    11    12 ar  
    21    11    13 ar  
    22    12    14 ar  
    23    12    28 1   
    24    13    15 ar  
    25    13    29 1   
    26    14    16 ar  
    27    14    30 1   
    28    15    16 ar  
    29    15    31 1   
    30    16    17 1   
    31    17    32 1   
    32    18    19 1   
    33    18    20 1   
@<TRIPOS>SUBSTRUCTURE
     1 CQR         1 TEMP              0 ****  ****    0 ROOT
