@<TRIPOS>MOLECULE
CQR
   32    33     1     0     0
SMALL
No Charge or Current Charge


@<TRIPOS>ATOM
      1 N           -2.0100     3.3630    -0.7560 n8         1 CQR      -0.991200
      2 CA1         -2.0700     2.2940     0.3020 c3         1 CQR       0.113500
      3 C1          -1.4300     0.9500    -0.0680 cc         1 CQR       0.507900
      4 N2          -0.1230     0.7030     0.1080 nd         1 CQR      -0.658300
      5 N3          -2.1330    -0.1000    -0.6400 n          1 CQR      -0.306300
      6 C2          -1.2820    -1.1500    -0.8800 c          1 CQR       0.538200
      7 O2          -1.5370    -2.2430    -1.3730 o          1 CQR      -0.520000
      8 CA2         -0.0050    -0.5940    -0.3850 cd         1 CQR       0.032400
      9 CA3         -3.5900    -0.1390    -0.9470 c3         1 CQR      -0.059000
     10 CB2          1.1980    -1.2740    -0.4000 ce         1 CQR      -0.107200
     11 CG2          2.5820    -0.8350    -0.0440 ca         1 CQR      -0.071800
     12 CD1          3.0030     0.5040    -0.1920 ca         1 CQR      -0.053000
     13 CD2          3.5040    -1.7930     0.4230 ca         1 CQR      -0.053000
     14 CE1          4.3180     0.8780     0.1400 ca         1 CQR      -0.188500
     15 CE2          4.8180    -1.4160     0.7550 ca         1 CQR      -0.188500
     16 CZ           5.2230    -0.0820     0.6150 ca         1 CQR       0.127100
     17 OH           6.4970     0.2740     0.9360 oh         1 CQR      -0.543100
     18 C           -4.5100    -0.2460     0.2910 c          1 CQR       0.710000
     19 O           -4.1800    -0.9980     1.1980 o          1 CQR      -0.717000
     20 OXT         -5.5000     0.4690     0.3350 o          1 CQR      -0.717000
     21 HN1         -2.3810     4.2430    -0.3750 hn         1 CQR       0.395000
     22 HN2         -1.0250     3.5810    -0.9570 hn         1 CQR       0.395000
     23 HA11        -1.5650     2.6690     1.2040 h1         1 CQR       0.067700
     24 HA12        -3.1210     2.1270     0.5740 h1         1 CQR       0.067700
     25 HA31        -3.8560     0.7710    -1.5000 h1         1 CQR       0.045700
     26 HA32        -3.8080    -0.9960    -1.5960 h1         1 CQR       0.045700
     27 HB2          1.1300    -2.3040    -0.7520 ha         1 CQR       0.183000
     28 HD1          2.3200     1.2570    -0.5760 ha         1 CQR       0.133000
     29 HD2          3.2000    -2.8320     0.5360 ha         1 CQR       0.133000
     30 HE1          4.6260     1.9140     0.0200 ha         1 CQR       0.111000
     31 HE2          5.5200    -2.1620     1.1190 ha         1 CQR       0.111000
     32 HOH          6.5980     1.2370     0.7760 ho         1 CQR       0.458000
@<TRIPOS>BOND
     1     1     2 1   
     2     1    21 1   
     3     1    22 1   
     4     2     3 1   
     5     2    23 1   
     6     2    24 1   
     7     3     4 2   
     8     3     5 1   
     9     4     8 1   
    10     5     6 1   
    11     5     9 1   
    12     6     7 2   
    13     6     8 1   
    14     8    10 2   
    15     9    18 1   
    16     9    25 1   
    17     9    26 1   
    18    10    11 1   
    19    10    27 1   
    20    11    12 ar  
    21    11    13 ar  
    22    12    14 ar  
    23    12    28 1   
    24    13    15 ar  
    25    13    29 1   
    26    14    16 ar  
    27    14    30 1   
    28    15    16 ar  
    29    15    31 1   
    30    16    17 1   
    31    17    32 1   
    32    18    19 1   
    33    18    20 1   
@<TRIPOS>SUBSTRUCTURE
     1 CQR         1 TEMP              0 ****  ****    0 ROOT
