@<TRIPOS>MOLECULE
CQS
   43    45     1     0     0
SMALL
abcg2


@<TRIPOS>ATOM
      1 C10          2.0260     1.0400     0.1680 c          1 CQS       0.582100
      2 C11          3.2820     1.7730    -0.2990 c3         1 CQS      -0.003400
      3 C14          5.1280     1.4260     1.3600 cc         1 CQS       0.414700
      4 C16          6.0980    -0.2650     0.5560 ca         1 CQS      -0.094600
      5 C17          5.0680     0.0370    -0.3210 ca         1 CQS       0.134500
      6 C18          6.8990    -1.3690     0.2140 ca         1 CQS       0.448900
      7 C01         -4.4760    -0.6260    -1.0190 ca         1 CQS      -0.005000
      8 C02         -3.2400    -0.0530    -1.2540 ca         1 CQS      -0.127500
      9 C03         -2.8420     1.1000    -0.5760 ca         1 CQS      -0.027300
     10 C04         -3.7100     1.6650     0.3510 ca         1 CQS      -0.127500
     11 C05         -4.9560     1.1050     0.5990 ca         1 CQS      -0.005000
     12 C06         -5.3260    -0.0390    -0.0890 ca         1 CQS      -0.270500
     13 C07         -1.4880     1.6940    -0.8350 c3         1 CQS      -0.059100
     14 C20          5.5760    -1.6310    -1.6520 ca         1 CQS       0.184900
     15 N09          0.8940     1.5020    -0.3720 ns         1 CQS      -0.512900
     16 N12          4.4650     1.1400     0.2020 na         1 CQS      -0.267300
     17 N15          6.1180     0.6180     1.6050 nd         1 CQS      -0.545100
     18 N19          6.6030    -2.0350    -0.9080 nb         1 CQS      -0.301000
     19 N21          4.7600    -0.6140    -1.4400 nb         1 CQS      -0.223000
     20 N26         -6.5280    -2.1510     0.9590 n8         1 CQS      -1.005100
     21 O13          2.0750     0.1260     0.9710 o          1 CQS      -0.571100
     22 O24         -7.7030     0.1600     0.9870 o          1 CQS      -0.543500
     23 O25         -7.4710    -1.1730    -1.1160 o          1 CQS      -0.543500
     24 S23         -6.9220    -0.7560     0.1670 sy         1 CQS       1.125600
     25 H112         3.3230     1.8010    -1.3890 h1         1 CQS       0.080200
     26 H111         3.2560     2.8070     0.0470 h1         1 CQS       0.080200
     27 H141         4.8330     2.2600     1.9800 h5         1 CQS       0.064800
     28 H011        -4.7690    -1.5180    -1.5560 ha         1 CQS       0.139000
     29 H021        -2.5790    -0.5030    -1.9850 ha         1 CQS       0.120000
     30 H041        -3.4200     2.5640     0.8820 ha         1 CQS       0.120000
     31 H051        -5.6200     1.5640     1.3170 ha         1 CQS       0.139000
     32 H071        -1.2580     1.6300    -1.9010 hc         1 CQS       0.056200
     33 H072        -1.4860     2.7530    -0.5660 hc         1 CQS       0.056200
     34 H081        -0.6000     1.0700     1.0300 h1         1 CQS       0.059700
     35 H082        -0.4390    -0.1050    -0.2690 h1         1 CQS       0.059700
     36 H201         5.3920    -2.2160    -2.5480 h5         1 CQS       0.045100
     37 H091         0.9430     2.2660    -1.0280 hn         1 CQS       0.313500
     38 H222         8.5300    -2.5060     0.6240 hn         1 CQS       0.503000
     39 H221         8.2370    -1.2370     1.7480 hn         1 CQS       0.503000
     40 H261        -6.2750    -1.9980     1.9290 hn         1 CQS       0.475000
     41 H262        -7.2730    -2.8380     0.8920 hn         1 CQS       0.475000
     42 N22          7.9200    -1.7840     0.9680 nv         1 CQS      -1.058900
     43 C08         -0.4090     0.9640    -0.0410 c3         1 CQS       0.109000
@<TRIPOS>BOND
     1     1     2 1   
     2     1    15 1   
     3     1    21 2   
     4     2    16 1   
     5     2    25 1   
     6     2    26 1   
     7     3    16 1   
     8     3    17 2   
     9     3    27 1   
    10     4     5 ar  
    11     4     6 ar  
    12     4    17 1   
    13     5    16 1   
    14     5    19 ar  
    15     6    18 ar  
    16     6    42 1   
    17     7     8 ar  
    18     7    12 ar  
    19     7    28 1   
    20     8     9 ar  
    21     8    29 1   
    22     9    10 ar  
    23     9    13 1   
    24    10    11 ar  
    25    10    30 1   
    26    11    12 ar  
    27    11    31 1   
    28    12    24 1   
    29    13    32 1   
    30    13    33 1   
    31    13    43 1   
    32    14    18 ar  
    33    14    19 ar  
    34    14    36 1   
    35    15    37 1   
    36    15    43 1   
    37    20    24 1   
    38    20    40 1   
    39    20    41 1   
    40    22    24 2   
    41    23    24 2   
    42    34    43 1   
    43    35    43 1   
    44    38    42 1   
    45    39    42 1   
@<TRIPOS>SUBSTRUCTURE
     1 CQS         1 TEMP              0 ****  ****    0 ROOT
