@<TRIPOS>MOLECULE
CQS
   43    45     1     0     0
SMALL
No Charge or Current Charge


@<TRIPOS>ATOM
      1 C10          2.0270     1.0790     0.4700 c          1 CQS       0.582100
      2 C11          3.3310     1.7560     0.0110 c3         1 CQS      -0.003400
      3 C14          5.2640     1.2390     1.6590 cc         1 CQS       0.414700
      4 C16          6.2520    -0.2910     0.5000 ca         1 CQS      -0.094600
      5 C17          5.1880     0.1040    -0.2740 ca         1 CQS       0.134500
      6 C18          7.0970    -1.3020    -0.0050 ca         1 CQS       0.448900
      7 C01         -4.5830    -0.7700    -1.0560 ca         1 CQS      -0.005000
      8 C02         -3.2960    -0.2640    -1.3090 ca         1 CQS      -0.127500
      9 C03         -2.8690     0.9350    -0.7080 ca         1 CQS      -0.027300
     10 C04         -3.7430     1.6230     0.1550 ca         1 CQS      -0.127500
     11 C05         -5.0310     1.1230     0.4130 ca         1 CQS      -0.005000
     12 C06         -5.4570    -0.0760    -0.1950 ca         1 CQS      -0.270500
     13 C07         -1.4730     1.4760    -0.9790 c3         1 CQS      -0.059100
     14 C20          5.7950    -1.3990    -1.8860 ca         1 CQS       0.184900
     15 N09          0.9020     1.4530    -0.2340 ns         1 CQS      -0.512900
     16 N12          4.5690     1.0750     0.4580 na         1 CQS      -0.267300
     17 N15          6.3240     0.4080     1.7130 nd         1 CQS      -0.545100
     18 N19          6.8730    -1.8600    -1.2050 nb         1 CQS      -0.301000
     19 N21          4.9310    -0.4370    -1.4810 nb         1 CQS      -0.223000
     20 N26         -6.8740    -1.6740     1.4320 n8         1 CQS      -1.005100
     21 O13          1.9710     0.2720     1.3890 o          1 CQS      -0.571100
     22 O24         -7.9850     0.3330     0.6300 o          1 CQS      -0.543500
     23 O25         -7.5150    -1.6540    -0.9120 o          1 CQS      -0.543500
     24 S23         -7.1020    -0.7180     0.1310 sy         1 CQS       1.125600
     25 H112         3.3220     1.8050    -1.0850 h1         1 CQS       0.080200
     26 H111         3.3230     2.7850     0.3900 h1         1 CQS       0.080200
     27 H141         4.9590     1.9490     2.4180 h5         1 CQS       0.064800
     28 H011        -4.8940    -1.7000    -1.5290 ha         1 CQS       0.139000
     29 H021        -2.6290    -0.8080    -1.9740 ha         1 CQS       0.120000
     30 H041        -3.4230     2.5480     0.6300 ha         1 CQS       0.120000
     31 H051        -5.6920     1.6680     1.0850 ha         1 CQS       0.139000
     32 H071        -1.1570     1.2100    -1.9960 hc         1 CQS       0.056200
     33 H072        -1.4780     2.5720    -0.9340 hc         1 CQS       0.056200
     34 H081        -0.7400     1.2180     1.0460 h1         1 CQS       0.059700
     35 H082        -0.4180    -0.1620    -0.0290 h1         1 CQS       0.059700
     36 H201         5.6040    -1.8460    -2.8600 h5         1 CQS       0.045100
     37 H091         1.0270     2.1290    -0.9800 hn         1 CQS       0.313500
     38 H222         8.8950    -2.2620     0.1560 hn         1 CQS       0.503000
     39 H221         8.4920    -1.2150     1.4750 hn         1 CQS       0.503000
     40 H261        -7.5910    -1.3090     2.0550 hn         1 CQS       0.475000
     41 H262        -7.2990    -2.5370     1.1010 hn         1 CQS       0.475000
     42 N22          8.1790    -1.7640     0.6780 nv         1 CQS      -1.058900
     43 C08         -0.4420     0.9350     0.0270 c3         1 CQS       0.109000
@<TRIPOS>BOND
     1     1     2 1   
     2     1    15 1   
     3     1    21 2   
     4     2    16 1   
     5     2    25 1   
     6     2    26 1   
     7     3    16 1   
     8     3    17 2   
     9     3    27 1   
    10     4     5 ar  
    11     4     6 ar  
    12     4    17 1   
    13     5    16 1   
    14     5    19 ar  
    15     6    18 ar  
    16     6    42 1   
    17     7     8 ar  
    18     7    12 ar  
    19     7    28 1   
    20     8     9 ar  
    21     8    29 1   
    22     9    10 ar  
    23     9    13 1   
    24    10    11 ar  
    25    10    30 1   
    26    11    12 ar  
    27    11    31 1   
    28    12    24 1   
    29    13    32 1   
    30    13    33 1   
    31    13    43 1   
    32    14    18 ar  
    33    14    19 ar  
    34    14    36 1   
    35    15    37 1   
    36    15    43 1   
    37    20    24 1   
    38    20    40 1   
    39    20    41 1   
    40    22    24 2   
    41    23    24 2   
    42    34    43 1   
    43    35    43 1   
    44    38    42 1   
    45    39    42 1   
@<TRIPOS>SUBSTRUCTURE
     1 CQS         1 TEMP              0 ****  ****    0 ROOT
