@<TRIPOS>MOLECULE
CQT
   42    44     1     0     0
SMALL
No Charge or Current Charge


@<TRIPOS>ATOM
      1 CAA          7.9750    -0.2250    -0.6740 c6         1 CQT       0.153100
      2 CAC          7.0070     1.6190     0.5340 c6         1 CQT       0.153100
      3 CAD          5.7060     0.8010     0.7940 c6         1 CQT       0.125300
      4 CAE          6.6990    -1.0850    -0.4360 c6         1 CQT       0.125300
      5 CAG          1.6940    -1.1680    -0.0490 c3         1 CQT       0.105000
      6 CAM         -5.7840     0.0810    -0.0040 cc         1 CQT       0.543500
      7 CAN         -1.9710     0.0710    -0.0830 ca         1 CQT       0.282500
      8 CAP         -3.3050    -0.3890    -0.0140 ca         1 CQT      -0.070000
      9 CAQ         -2.7030     2.2820    -0.2660 ca         1 CQT       0.330900
     10 CAR         -4.3810     0.5260    -0.0730 ca         1 CQT      -0.093500
     11 CAS         -4.0500     1.8930    -0.2030 ca         1 CQT      -0.119000
     12 CAT         -0.8180    -0.9390    -0.0160 c          1 CQT       0.506600
     13 CAV          2.9320    -0.2550    -0.1050 c3         1 CQT      -0.097400
     14 NAF          5.4760    -0.2370    -0.2640 n3         1 CQT      -0.716600
     15 NAI         -7.8310    -0.0110     0.0470 na         1 CQT       0.115600
     16 NAJ         -7.3980    -1.3080     0.1550 nd         1 CQT      -0.165800
     17 NAK         -6.8100     0.9010    -0.0560 nd         1 CQT      -0.511800
     18 NAL         -6.0970    -1.2410     0.1220 nc         1 CQT      -0.365000
     19 NAO         -1.6790     1.4020    -0.2090 nb         1 CQT      -0.668000
     20 NAU          0.4510    -0.3970    -0.0920 ns         1 CQT      -0.487900
     21 OAB          8.1430     0.7330     0.3980 os         1 CQT      -0.449000
     22 OAH         -0.9830    -2.1500     0.0960 o          1 CQT      -0.603100
     23 H1           8.8610    -0.8740    -0.7200 h1         1 CQT       0.050950
     24 H2           7.8940     0.3110    -1.6310 h1         1 CQT       0.050950
     25 H3           6.8980     2.2130    -0.3850 h1         1 CQT       0.050950
     26 H4           7.1870     2.3110     1.3690 h1         1 CQT       0.050950
     27 H5           5.7810     0.3270     1.7840 h1         1 CQT       0.041200
     28 H6           4.8650     1.5070     0.8370 h1         1 CQT       0.041200
     29 H7           6.5720    -1.7690    -1.2870 h1         1 CQT       0.041200
     30 H8           6.8580    -1.7080     0.4570 h1         1 CQT       0.041200
     31 H9           1.7090    -1.8620    -0.8990 h1         1 CQT       0.051700
     32 H10          1.7130    -1.7570     0.8780 h1         1 CQT       0.051700
     33 H11         -3.4890    -1.4560     0.0860 ha         1 CQT       0.170000
     34 H12         -2.4340     3.3330    -0.3660 h4         1 CQT       0.026100
     35 H13         -4.8210     2.6570    -0.2550 ha         1 CQT       0.140000
     36 H14          2.9020     0.3380    -1.0270 hc         1 CQT       0.053200
     37 H15          2.8910     0.4440     0.7380 hc         1 CQT       0.053200
     38 H16          4.3130    -1.5830     0.9010 h1         1 CQT       0.034200
     39 H17          4.2030    -1.8200    -0.8450 h1         1 CQT       0.034200
     40 H19         -8.8210     0.2390     0.0460 hn         1 CQT       0.410000
     41 H20          0.4930     0.6130    -0.1850 hn         1 CQT       0.340500
     42 CAW          4.2540    -1.0530    -0.0600 c3         1 CQT       0.170800
@<TRIPOS>BOND
     1     1     4 1   
     2     1    21 1   
     3     1    23 1   
     4     1    24 1   
     5     2     3 1   
     6     2    21 1   
     7     2    25 1   
     8     2    26 1   
     9     3    14 1   
    10     3    27 1   
    11     3    28 1   
    12     4    14 1   
    13     4    29 1   
    14     4    30 1   
    15     5    13 1   
    16     5    20 1   
    17     5    31 1   
    18     5    32 1   
    19     6    10 1   
    20     6    17 2   
    21     6    18 1   
    22     7     8 ar  
    23     7    12 1   
    24     7    19 ar  
    25     8    10 ar  
    26     8    33 1   
    27     9    11 ar  
    28     9    19 ar  
    29     9    34 1   
    30    10    11 ar  
    31    11    35 1   
    32    12    20 1   
    33    12    22 2   
    34    13    36 1   
    35    13    37 1   
    36    13    42 1   
    37    14    42 1   
    38    15    16 1   
    39    15    17 1   
    40    15    40 1   
    41    16    18 2   
    42    20    41 1   
    43    38    42 1   
    44    39    42 1   
@<TRIPOS>SUBSTRUCTURE
     1 CQT         1 TEMP              0 ****  ****    0 ROOT
