@<TRIPOS>MOLECULE
CQT
   42    44     1     0     0
SMALL
abcg2


@<TRIPOS>ATOM
      1 CAA          7.7800     0.0040    -0.5450 c6         1 CQT       0.153100
      2 CAC          6.7560     1.4750     0.9280 c6         1 CQT       0.153100
      3 CAD          5.5370     0.5780     1.0170 c6         1 CQT       0.125300
      4 CAE          6.5850    -0.9280    -0.4810 c6         1 CQT       0.125300
      5 CAG          1.7030    -1.1960    -0.3130 c3         1 CQT       0.105000
      6 CAM         -5.5650     0.1300     0.2270 cc         1 CQT       0.543500
      7 CAN         -1.8670     0.0230    -0.2410 ca         1 CQT       0.282500
      8 CAP         -3.1520    -0.3890     0.0720 ca         1 CQT      -0.070000
      9 CAQ         -2.5780     2.1010    -0.8430 ca         1 CQT       0.330900
     10 CAR         -4.1950     0.5170    -0.0890 ca         1 CQT      -0.093500
     11 CAS         -3.8980     1.7910    -0.5570 ca         1 CQT      -0.119000
     12 CAT         -0.7230    -0.9410    -0.0730 c          1 CQT       0.506600
     13 CAV          2.8960    -0.2540    -0.2720 c3         1 CQT      -0.097400
     14 NAF          5.3740    -0.1710    -0.2170 n3         1 CQT      -0.716600
     15 NAI         -7.5790     0.1470     0.4900 na         1 CQT       0.115600
     16 NAJ         -7.2050    -1.0450     0.8460 nd         1 CQT      -0.165800
     17 NAK         -6.6120     0.9230     0.0970 nd         1 CQT      -0.511800
     18 NAL         -5.9250    -1.0810     0.6870 nc         1 CQT      -0.365000
     19 NAO         -1.5830     1.2400    -0.6900 nb         1 CQT      -0.668000
     20 NAU          0.4710    -0.4430    -0.3950 ns         1 CQT      -0.487900
     21 OAB          7.9280     0.7420     0.6490 os         1 CQT      -0.449000
     22 OAH         -0.9130    -2.0790     0.3340 o          1 CQT      -0.603100
     23 H1           8.6960    -0.5690    -0.6910 h1         1 CQT       0.050950
     24 H2           7.6640     0.6830    -1.4030 h1         1 CQT       0.050950
     25 H3           6.5860     2.2370     0.1540 h1         1 CQT       0.050950
     26 H4           6.9110     1.9900     1.8780 h1         1 CQT       0.050950
     27 H5           5.6320    -0.0960     1.8870 h1         1 CQT       0.041200
     28 H6           4.6650     1.2100     1.1940 h1         1 CQT       0.041200
     29 H7           6.4910    -1.4440    -1.4400 h1         1 CQT       0.041200
     30 H8           6.7610    -1.7000     0.2880 h1         1 CQT       0.041200
     31 H9           1.7910    -1.8770    -1.1660 h1         1 CQT       0.051700
     32 H10          1.6840    -1.8150     0.5870 h1         1 CQT       0.051700
     33 H11         -3.3330    -1.3920     0.4310 ha         1 CQT       0.170000
     34 H12         -2.3170     3.0860    -1.2090 h4         1 CQT       0.026100
     35 H13         -4.6690     2.5350    -0.7010 ha         1 CQT       0.140000
     36 H14          2.9050     0.3770    -1.1660 hc         1 CQT       0.053200
     37 H15          2.7870     0.4110     0.5890 hc         1 CQT       0.053200
     38 H16          4.1980    -1.6860     0.6870 h1         1 CQT       0.034200
     39 H17          4.2640    -1.6890    -1.0710 h1         1 CQT       0.034200
     40 H19         -8.5470     0.4410     0.5180 hn         1 CQT       0.410000
     41 H20          0.4960     0.4990    -0.7570 hn         1 CQT       0.340500
     42 CAW          4.2040    -1.0290    -0.2010 c3         1 CQT       0.170800
@<TRIPOS>BOND
     1     1     4 1   
     2     1    21 1   
     3     1    23 1   
     4     1    24 1   
     5     2     3 1   
     6     2    21 1   
     7     2    25 1   
     8     2    26 1   
     9     3    14 1   
    10     3    27 1   
    11     3    28 1   
    12     4    14 1   
    13     4    29 1   
    14     4    30 1   
    15     5    13 1   
    16     5    20 1   
    17     5    31 1   
    18     5    32 1   
    19     6    10 1   
    20     6    17 2   
    21     6    18 1   
    22     7     8 ar  
    23     7    12 1   
    24     7    19 ar  
    25     8    10 ar  
    26     8    33 1   
    27     9    11 ar  
    28     9    19 ar  
    29     9    34 1   
    30    10    11 ar  
    31    11    35 1   
    32    12    20 1   
    33    12    22 2   
    34    13    36 1   
    35    13    37 1   
    36    13    42 1   
    37    14    42 1   
    38    15    16 1   
    39    15    17 1   
    40    15    40 1   
    41    16    18 2   
    42    20    41 1   
    43    38    42 1   
    44    39    42 1   
@<TRIPOS>SUBSTRUCTURE
     1 CQT         1 TEMP              0 ****  ****    0 ROOT
