@<TRIPOS>MOLECULE
CQU
   35    38     1     0     0
SMALL
No Charge or Current Charge


@<TRIPOS>ATOM
      1 N3           0.4710    -0.4900    -0.3010 nu         1 CQU      -0.937900
      2 C7          -0.5290    -1.4660    -0.3040 ca         1 CQU       0.370000
      3 C6           2.2200     1.9820    -0.7530 cc         1 CQU      -0.195200
      4 C13         -0.1890    -2.8260    -0.4470 ca         1 CQU      -0.149000
      5 C21         -3.6080     2.0660     0.2150 cc         1 CQU       0.386800
      6 C8           3.6780    -1.3750     1.0110 ca         1 CQU       0.171900
      7 C16         -1.1740    -3.8240    -0.4460 ca         1 CQU      -0.062000
      8 C19         -2.5200    -3.4650    -0.3130 ca         1 CQU      -0.151000
      9 C22         -4.7870     2.9200     0.5680 c3         1 CQU      -0.126400
     10 N18         -3.5820     0.7050     0.2930 na         1 CQU      -0.497000
     11 N20         -2.4370     2.4940    -0.2170 nd         1 CQU      -0.346000
     12 N17         -1.6410     1.3930    -0.4220 nd         1 CQU      -0.419000
     13 C14         -2.3350     0.3080    -0.1020 cc         1 CQU       0.477000
     14 C12         -1.8960    -1.0950    -0.1840 ca         1 CQU      -0.211500
     15 C15         -2.8790    -2.1150    -0.1930 ca         1 CQU      -0.072000
     16 C1           1.8110    -0.4440     0.0530 ca         1 CQU       0.435900
     17 C2           2.5630     0.7200    -0.1600 ca         1 CQU      -0.243800
     18 C5           3.8780     0.7680     0.2300 ca         1 CQU       0.136500
     19 N9           4.3990     2.0120    -0.0900 na         1 CQU      -0.315400
     20 C11          3.3630     2.7630    -0.7010 cd         1 CQU      -0.181100
     21 N10          4.4640    -0.2880     0.8250 nb         1 CQU      -0.218000
     22 N4           2.3760    -1.5040     0.6600 nb         1 CQU      -0.292000
     23 HN3          0.0940     0.4450    -0.4600 hn         1 CQU       0.552000
     24 H6           1.2630     2.2910    -1.1740 ha         1 CQU       0.225000
     25 H13          0.8460    -3.1210    -0.5790 ha         1 CQU       0.162000
     26 H8           4.1390    -2.2330     1.4960 h5         1 CQU       0.044100
     27 H16         -0.8950    -4.8690    -0.5560 ha         1 CQU       0.117000
     28 H19         -3.2900    -4.2340    -0.3190 ha         1 CQU       0.118000
     29 H22         -5.0660     2.7790     1.6180 hc         1 CQU       0.061033
     30 H22A        -4.5640     3.9820     0.4150 hc         1 CQU       0.061033
     31 H22B        -5.6520     2.6620    -0.0540 hc         1 CQU       0.061033
     32 HN18        -4.3330     0.1060     0.5980 hn         1 CQU       0.363000
     33 H15         -3.9360    -1.8710    -0.1180 ha         1 CQU       0.096000
     34 HN9          5.3510     2.3200     0.0860 hn         1 CQU       0.361000
     35 H11          3.5140     3.7840    -1.0490 h4         1 CQU       0.217000
@<TRIPOS>BOND
     1     1     2 1   
     2     1    16 1   
     3     1    23 1   
     4     2     4 ar  
     5     2    14 ar  
     6     3    17 1   
     7     3    20 2   
     8     3    24 1   
     9     4     7 ar  
    10     4    25 1   
    11     5     9 1   
    12     5    10 1   
    13     5    11 2   
    14     6    21 ar  
    15     6    22 ar  
    16     6    26 1   
    17     7     8 ar  
    18     7    27 1   
    19     8    15 ar  
    20     8    28 1   
    21     9    29 1   
    22     9    30 1   
    23     9    31 1   
    24    10    13 1   
    25    10    32 1   
    26    11    12 1   
    27    12    13 2   
    28    13    14 1   
    29    14    15 ar  
    30    15    33 1   
    31    16    17 ar  
    32    16    22 ar  
    33    17    18 ar  
    34    18    19 1   
    35    18    21 ar  
    36    19    20 1   
    37    19    34 1   
    38    20    35 1   
@<TRIPOS>SUBSTRUCTURE
     1 CQU         1 TEMP              0 ****  ****    0 ROOT
