@<TRIPOS>MOLECULE
CQU
   35    38     1     0     0
SMALL
abcg2


@<TRIPOS>ATOM
      1 N3           0.4150    -0.4280    -0.1230 nu         1 CQU      -0.937900
      2 C7          -0.5190    -1.4500    -0.1030 ca         1 CQU       0.370000
      3 C6           2.1370     2.1650    -0.2120 cc         1 CQU      -0.195200
      4 C13         -0.1750    -2.8070    -0.1090 ca         1 CQU      -0.149000
      5 C21         -3.5990     2.0500     0.0440 cc         1 CQU       0.386800
      6 C8           3.7880    -1.5120     0.1830 ca         1 CQU       0.171900
      7 C16         -1.1510    -3.7880    -0.1020 ca         1 CQU      -0.062000
      8 C19         -2.4970    -3.4540    -0.0900 ca         1 CQU      -0.151000
      9 C22         -4.7980     2.9070     0.1810 c3         1 CQU      -0.126400
     10 N18         -3.6220     0.6970     0.0920 na         1 CQU      -0.497000
     11 N20         -2.3720     2.4520    -0.1360 nd         1 CQU      -0.346000
     12 N17         -1.5890     1.3530    -0.2060 nd         1 CQU      -0.419000
     13 C14         -2.3400     0.2870    -0.0690 cc         1 CQU       0.477000
     14 C12         -1.8940    -1.1030    -0.0860 ca         1 CQU      -0.211500
     15 C15         -2.8510    -2.1190    -0.0850 ca         1 CQU      -0.072000
     16 C1           1.7720    -0.4450    -0.0350 ca         1 CQU       0.435900
     17 C2           2.4620     0.7810    -0.0840 ca         1 CQU      -0.243800
     18 C5           3.8560     0.6880     0.0190 ca         1 CQU       0.136500
     19 N9           4.3570     1.9440    -0.0430 na         1 CQU      -0.315400
     20 C11          3.3250     2.8350    -0.1820 cd         1 CQU      -0.181100
     21 N10          4.5530    -0.4430     0.1530 nb         1 CQU      -0.218000
     22 N4           2.4570    -1.5740     0.0980 nb         1 CQU      -0.292000
     23 HN3          0.0010     0.5030    -0.1940 hn         1 CQU       0.552000
     24 H6           1.1610     2.6120    -0.3140 ha         1 CQU       0.225000
     25 H13          0.8660    -3.0850    -0.1180 ha         1 CQU       0.162000
     26 H8           4.2920    -2.4660     0.2910 h5         1 CQU       0.044100
     27 H16         -0.8480    -4.8280    -0.1090 ha         1 CQU       0.117000
     28 H19         -3.2610    -4.2190    -0.0900 ha         1 CQU       0.118000
     29 H22         -5.2820     2.7540     1.1460 hc         1 CQU       0.061033
     30 H22A        -4.5120     3.9530     0.1010 hc         1 CQU       0.061033
     31 H22B        -5.5290     2.6870    -0.5970 hc         1 CQU       0.061033
     32 HN18        -4.4400     0.1270     0.2400 hn         1 CQU       0.363000
     33 H15         -3.9040    -1.8720    -0.0850 ha         1 CQU       0.096000
     34 HN9          5.3340     2.1830     0.0030 hn         1 CQU       0.361000
     35 H11          3.5220     3.8920    -0.2510 h4         1 CQU       0.217000
@<TRIPOS>BOND
     1     1     2 1   
     2     1    16 1   
     3     1    23 1   
     4     2     4 ar  
     5     2    14 ar  
     6     3    17 1   
     7     3    20 2   
     8     3    24 1   
     9     4     7 ar  
    10     4    25 1   
    11     5     9 1   
    12     5    10 1   
    13     5    11 2   
    14     6    21 ar  
    15     6    22 ar  
    16     6    26 1   
    17     7     8 ar  
    18     7    27 1   
    19     8    15 ar  
    20     8    28 1   
    21     9    29 1   
    22     9    30 1   
    23     9    31 1   
    24    10    13 1   
    25    10    32 1   
    26    11    12 1   
    27    12    13 2   
    28    13    14 1   
    29    14    15 ar  
    30    15    33 1   
    31    16    17 ar  
    32    16    22 ar  
    33    17    18 ar  
    34    18    19 1   
    35    18    21 ar  
    36    19    20 1   
    37    19    34 1   
    38    20    35 1   
@<TRIPOS>SUBSTRUCTURE
     1 CQU         1 TEMP              0 ****  ****    0 ROOT
