@<TRIPOS>MOLECULE
CQV
   25    25     1     0     0
SMALL
No Charge or Current Charge


@<TRIPOS>ATOM
      1 C9           3.5200    -0.0400    -0.3000 c          1 CQV       0.610500
      2 C8           0.0550     1.1170     0.6490 ca         1 CQV       0.313900
      3 C7           2.0030    -0.0400     0.0450 ca         1 CQV       0.294500
      4 C4          -0.7150    -0.0610     0.6620 ca         1 CQV      -0.179300
      5 C5          -0.0860    -1.2760     0.3490 ca         1 CQV      -0.103000
      6 C6           1.2830    -1.2610     0.0390 ca         1 CQV      -0.142000
      7 C3          -2.1990    -0.0170     1.0020 c3         1 CQV      -0.011100
      8 C2          -3.0840     0.0090    -0.2620 c3         1 CQV      -0.077400
      9 C1          -4.5940     0.0580     0.0550 c3         1 CQV      -0.076400
     10 O            4.0680    -1.1050    -0.5730 o          1 CQV      -0.703500
     11 O1           4.1420     1.0190    -0.2940 o          1 CQV      -0.703500
     12 N            1.3730     1.1390     0.3520 nb         1 CQV      -0.636000
     13 C           -5.4760     0.0840    -1.2080 c3         1 CQV      -0.087100
     14 H9          -0.6440    -2.2100     0.3440 ha         1 CQV       0.087000
     15 H10          1.7870    -2.1920    -0.2060 ha         1 CQV       0.137000
     16 H7          -2.4670    -0.8890     1.6120 hc         1 CQV       0.030700
     17 H8          -2.4200     0.8660     1.6150 hc         1 CQV       0.030700
     18 H6          -2.8140     0.8820    -0.8690 hc         1 CQV       0.043700
     19 H5          -2.8700    -0.8800    -0.8680 hc         1 CQV       0.043700
     20 H4          -4.8670    -0.8150     0.6620 hc         1 CQV       0.030200
     21 H3          -4.8110     0.9480     0.6590 hc         1 CQV       0.030200
     22 H2          -6.5370     0.1180    -0.9330 hc         1 CQV       0.026700
     23 H1          -5.2510     0.9670    -1.8190 hc         1 CQV       0.026700
     24 H           -5.3080    -0.8120    -1.8170 hc         1 CQV       0.026700
     25 H11         -0.3970     2.0800     0.8840 h4         1 CQV      -0.011900
@<TRIPOS>BOND
     1     1     3 1   
     2     1    10 1   
     3     1    11 1   
     4     2     4 ar  
     5     2    12 ar  
     6     2    25 1   
     7     3     6 ar  
     8     3    12 ar  
     9     4     5 ar  
    10     4     7 1   
    11     5     6 ar  
    12     5    14 1   
    13     6    15 1   
    14     7     8 1   
    15     7    16 1   
    16     7    17 1   
    17     8     9 1   
    18     8    18 1   
    19     8    19 1   
    20     9    13 1   
    21     9    20 1   
    22     9    21 1   
    23    13    22 1   
    24    13    23 1   
    25    13    24 1   
@<TRIPOS>SUBSTRUCTURE
     1 CQV         1 TEMP              0 ****  ****    0 ROOT
