@<TRIPOS>MOLECULE
CQV
   25    25     1     0     0
SMALL
bcc


@<TRIPOS>ATOM
      1 C9           3.4070     0.0380    -0.3860 c          1 CQV       0.821100
      2 C8          -0.0330     1.0220     0.4720 ca         1 CQV       0.379200
      3 C7           1.9320    -0.0510     0.0050 ca         1 CQV       0.359800
      4 C4          -0.7360    -0.1620     0.6870 ca         1 CQV      -0.244600
      5 C5          -0.0150    -1.3410     0.5480 ca         1 CQV      -0.121000
      6 C6           1.3270    -1.2880     0.2080 ca         1 CQV      -0.225300
      7 C3          -2.2020    -0.1460     1.0010 c3         1 CQV      -0.011100
      8 C2          -3.0580     0.0330    -0.2550 c3         1 CQV      -0.077400
      9 C1          -4.5510     0.0410     0.0430 c3         1 CQV      -0.076400
     10 O            4.0130    -1.0490    -0.4680 o          1 CQV      -0.808800
     11 O1           3.8660     1.1740    -0.5880 o          1 CQV      -0.808800
     12 N            1.2490     1.0840     0.1430 nb         1 CQV      -0.636000
     13 C           -5.3980     0.2460    -1.2060 c3         1 CQV      -0.087100
     14 H9          -0.5000    -2.2970     0.7110 ha         1 CQV       0.105000
     15 H10          1.9050    -2.1940     0.0970 ha         1 CQV       0.155000
     16 H7          -2.4810    -1.0780     1.5000 hc         1 CQV       0.030700
     17 H8          -2.4220     0.6630     1.7040 hc         1 CQV       0.030700
     18 H6          -2.7780     0.9690    -0.7480 hc         1 CQV       0.043700
     19 H5          -2.8310    -0.7680    -0.9670 hc         1 CQV       0.043700
     20 H4          -4.8300    -0.9020     0.5220 hc         1 CQV       0.030200
     21 H3          -4.7710     0.8280     0.7710 hc         1 CQV       0.030200
     22 H2          -6.4630     0.2440    -0.9690 hc         1 CQV       0.026700
     23 H1          -5.1680     1.1970    -1.6890 hc         1 CQV       0.026700
     24 H           -5.2210    -0.5460    -1.9350 hc         1 CQV       0.026700
     25 H11         -0.5480     1.9730     0.5790 h4         1 CQV      -0.011900
@<TRIPOS>BOND
     1     1     3 1   
     2     1    10 1   
     3     1    11 1   
     4     2     4 ar  
     5     2    12 ar  
     6     2    25 1   
     7     3     6 ar  
     8     3    12 ar  
     9     4     5 ar  
    10     4     7 1   
    11     5     6 ar  
    12     5    14 1   
    13     6    15 1   
    14     7     8 1   
    15     7    16 1   
    16     7    17 1   
    17     8     9 1   
    18     8    18 1   
    19     8    19 1   
    20     9    13 1   
    21     9    20 1   
    22     9    21 1   
    23    13    22 1   
    24    13    23 1   
    25    13    24 1   
@<TRIPOS>SUBSTRUCTURE
     1 CQV         1 TEMP              0 ****  ****    0 ROOT
