@<TRIPOS>MOLECULE
CQW
   30    33     1     0     0
SMALL
abcg2


@<TRIPOS>ATOM
      1 C7           3.1290    -0.5860     0.1600 ca         1 CQW       0.141500
      2 C9           2.3110    -2.3710     1.1580 ca         1 CQW       0.180900
      3 C13          1.8480    -0.0680    -0.1250 ca         1 CQW      -0.219800
      4 C21         -3.1130     0.1760    -0.3700 cc         1 CQW      -0.200300
      5 N5           4.0570     0.3100    -0.2410 na         1 CQW      -0.308400
      6 C18         -2.1130     0.7720    -1.2880 c6         1 CQW      -0.000100
      7 C2           2.0890     1.2340    -0.6720 cc         1 CQW       0.072800
      8 C3           3.4370     1.4210    -0.7340 cd         1 CQW      -0.167100
      9 N8           3.3960    -1.7340     0.7790 nb         1 CQW      -0.223000
     10 C12          0.7730    -0.9130     0.2460 ca         1 CQW       0.429900
     11 N11          1.0480    -2.0260     0.9230 nb         1 CQW      -0.291000
     12 N14         -0.5400    -0.6530    -0.0150 nh         1 CQW      -0.760300
     13 C28         -1.5300    -1.4870     0.6600 c6         1 CQW       0.194500
     14 C27         -2.8660    -0.8460     0.4950 cd         1 CQW       0.228300
     15 N26         -3.9960    -1.1780     1.1870 nd         1 CQW      -0.659000
     16 C24         -4.9170    -0.3590     0.7440 cc         1 CQW       0.392400
     17 N22         -4.4310     0.4810    -0.1950 na         1 CQW      -0.292500
     18 C15         -0.9490    -0.2110    -1.3490 c6         1 CQW       0.219800
     19 H9           2.4540    -3.2930     1.7110 h5         1 CQW       0.049100
     20 HN5          5.0540     0.1950    -0.1440 hn         1 CQW       0.368000
     21 H18         -2.5130     0.9110    -2.2960 hc         1 CQW       0.059700
     22 H18A        -1.7810     1.7510    -0.9350 hc         1 CQW       0.059700
     23 H3           3.9960     2.2770    -1.0720 h4         1 CQW       0.230000
     24 H28         -1.5300    -2.5120     0.2660 h1         1 CQW       0.072200
     25 H28A        -1.2740    -1.5610     1.7170 h1         1 CQW       0.072200
     26 H24         -5.9470    -0.3280     1.0670 h5         1 CQW       0.056100
     27 HN22        -4.9570     1.1870    -0.6850 hn         1 CQW       0.351000
     28 H15         -1.2610    -1.0910    -1.9240 h1         1 CQW       0.053200
     29 H15A        -0.1050     0.2190    -1.8780 h1         1 CQW       0.053200
     30 CL1          0.9650     2.4620    -1.0900 cl         1 CQW      -0.161000
@<TRIPOS>BOND
     1     1     3 ar  
     2     1     5 1   
     3     1     9 ar  
     4     2     9 ar  
     5     2    11 ar  
     6     2    19 1   
     7     3     7 1   
     8     3    10 ar  
     9     4     6 1   
    10     4    14 2   
    11     4    17 1   
    12     5     8 1   
    13     5    20 1   
    14     6    18 1   
    15     6    21 1   
    16     6    22 1   
    17     7     8 2   
    18     7    30 1   
    19     8    23 1   
    20    10    11 ar  
    21    10    12 1   
    22    12    13 1   
    23    12    18 1   
    24    13    14 1   
    25    13    24 1   
    26    13    25 1   
    27    14    15 1   
    28    15    16 2   
    29    16    17 1   
    30    16    26 1   
    31    17    27 1   
    32    18    28 1   
    33    18    29 1   
@<TRIPOS>SUBSTRUCTURE
     1 CQW         1 TEMP              0 ****  ****    0 ROOT
