@<TRIPOS>MOLECULE
CQW
   30    33     1     0     0
SMALL
No Charge or Current Charge


@<TRIPOS>ATOM
      1 C7           3.2680    -0.5920     0.1340 ca         1 CQW       0.141500
      2 C9           2.4110    -2.6470     0.6580 ca         1 CQW       0.180900
      3 C13          1.9860    -0.1170    -0.0170 ca         1 CQW      -0.219800
      4 C21         -3.1990     0.1270    -0.4540 cc         1 CQW      -0.200300
      5 N5           4.1750     0.4290    -0.1070 na         1 CQW      -0.308400
      6 C18         -2.1910     0.5010    -1.5100 c6         1 CQW      -0.000100
      7 C2           2.0800     1.2790    -0.3430 cc         1 CQW       0.072800
      8 C3           3.4250     1.5950    -0.3940 cd         1 CQW      -0.167100
      9 N8           3.5030    -1.8720     0.4760 nb         1 CQW      -0.223000
     10 C12          0.8930    -0.9850     0.1730 ca         1 CQW       0.429900
     11 N11          1.1200    -2.2690     0.5220 nb         1 CQW      -0.291000
     12 N14         -0.4540    -0.6080    -0.0080 nh         1 CQW      -0.760300
     13 C28         -1.5030    -1.1360     0.9390 c6         1 CQW       0.194500
     14 C27         -2.9050    -0.6000     0.6640 cd         1 CQW       0.228300
     15 N26         -4.0380    -0.7660     1.4410 nd         1 CQW      -0.659000
     16 C24         -5.0120    -0.1320     0.7960 cc         1 CQW       0.392400
     17 N22         -4.5390     0.4300    -0.3680 na         1 CQW      -0.292500
     18 C15         -0.9450    -0.4310    -1.4120 c6         1 CQW       0.219800
     19 H9           2.5900    -3.6840     0.9380 h5         1 CQW       0.049100
     20 HN5          5.1870     0.3480    -0.0640 hn         1 CQW       0.368000
     21 H18         -2.6230     0.4320    -2.5170 hc         1 CQW       0.059700
     22 H18A        -1.8800     1.5450    -1.3770 hc         1 CQW       0.059700
     23 H3           3.8910     2.5570    -0.5940 h4         1 CQW       0.230000
     24 H28         -1.5440    -2.2330     0.8830 h1         1 CQW       0.072200
     25 H28A        -1.2300    -0.8790     1.9720 h1         1 CQW       0.072200
     26 H24         -6.0470    -0.0460     1.1090 h5         1 CQW       0.056100
     27 HN22        -5.0930     0.9650    -1.0260 hn         1 CQW       0.351000
     28 H15         -1.2120    -1.4140    -1.8280 h1         1 CQW       0.053200
     29 H15A        -0.1490    -0.0210    -2.0510 h1         1 CQW       0.053200
     30 Cl1          0.7720     2.4040    -0.5340 cl         1 CQW      -0.161000
@<TRIPOS>BOND
     1     1     3 ar  
     2     1     5 1   
     3     1     9 ar  
     4     2     9 ar  
     5     2    11 ar  
     6     2    19 1   
     7     3     7 1   
     8     3    10 ar  
     9     4     6 1   
    10     4    14 2   
    11     4    17 1   
    12     5     8 1   
    13     5    20 1   
    14     6    18 1   
    15     6    21 1   
    16     6    22 1   
    17     7     8 2   
    18     7    30 1   
    19     8    23 1   
    20    10    11 ar  
    21    10    12 1   
    22    12    13 1   
    23    12    18 1   
    24    13    14 1   
    25    13    24 1   
    26    13    25 1   
    27    14    15 1   
    28    15    16 2   
    29    16    17 1   
    30    16    26 1   
    31    17    27 1   
    32    18    28 1   
    33    18    29 1   
@<TRIPOS>SUBSTRUCTURE
     1 CQW         1 TEMP              0 ****  ****    0 ROOT
