@<TRIPOS>MOLECULE
CQX
   61    61     1     0     0
SMALL
No Charge or Current Charge


@<TRIPOS>ATOM
      1 C1          -5.1490     0.1760    -1.4620 c6         1 CQX       0.123300
      2 C2          -4.0720     1.3020    -1.4790 c6         1 CQX       0.143300
      3 C3          -3.9210     1.9410    -0.0630 c6         1 CQX       0.148300
      4 C4          -3.6280     0.8290     0.9920 c6         1 CQX       0.168300
      5 C6          -4.7790    -0.8630    -0.3420 c6         1 CQX       0.354300
      6 O49         -6.4580     0.7760    -1.2630 oh         1 CQX      -0.691000
      7 O55         -4.4350     2.3090    -2.4430 oh         1 CQX      -0.654000
      8 O7          -2.8900     2.9500    -0.0910 oh         1 CQX      -0.723000
      9 O5          -4.6580    -0.2000     0.9380 os         1 CQX      -0.456000
     10 C57         -3.5730     1.3960     2.4500 c3         1 CQX       0.169600
     11 O61         -3.3560     0.3830     3.4550 oh         1 CQX      -0.713000
     12 O16         -3.5410    -1.5310    -0.6510 os         1 CQX      -0.482000
     13 C18         -3.1570    -2.6120     0.2250 c3         1 CQX       0.160600
     14 C19         -1.7840    -3.1590    -0.2290 c3         1 CQX       0.162600
     15 O22         -0.7680    -2.1820     0.0730 os         1 CQX      -0.448000
     16 C25          0.5590    -2.5650    -0.3170 c3         1 CQX       0.162600
     17 C28          1.5090    -1.4150     0.0700 c3         1 CQX      -0.080400
     18 C31          2.9810    -1.7000    -0.2990 c3         1 CQX      -0.073400
     19 C34          3.9360    -0.5490     0.0860 c3         1 CQX      -0.074400
     20 C37          5.4080    -0.8350    -0.2830 c3         1 CQX      -0.074400
     21 C40          6.3620     0.3160     0.1030 c3         1 CQX      -0.074400
     22 C43          7.8350     0.0300    -0.2660 c3         1 CQX      -0.074400
     23 C46          8.7890     1.1810     0.1190 c3         1 CQX      -0.075400
     24 C49         10.2610     0.8950    -0.2490 c3         1 CQX      -0.075400
     25 C52         11.2140     2.0430     0.1350 c3         1 CQX      -0.088100
     26 H1          -5.1230    -0.3450    -2.4300 h1         1 CQX       0.045700
     27 H2          -3.1070     0.8500    -1.7570 h1         1 CQX       0.064700
     28 H3          -4.8820     2.4060     0.2050 h1         1 CQX       0.066700
     29 H4          -2.6510     0.3730     0.7740 h1         1 CQX       0.081700
     30 H5          -5.5810    -1.6140    -0.2830 h2         1 CQX       0.061700
     31 H6          -7.1220     0.0470    -1.2640 ho         1 CQX       0.501000
     32 H7          -5.4200     2.3050    -2.4360 ho         1 CQX       0.446000
     33 H8          -2.9980     3.4010    -0.9640 ho         1 CQX       0.520000
     34 H9          -2.7700     2.1440     2.4970 h1         1 CQX       0.034200
     35 H10         -4.5170     1.9220     2.6460 h1         1 CQX       0.034200
     36 H11         -3.4070     0.8320     4.3310 ho         1 CQX       0.500000
     37 H12         -3.0840    -2.2760     1.2680 h1         1 CQX       0.047200
     38 H13         -3.8970    -3.4220     0.1800 h1         1 CQX       0.047200
     39 H14         -1.5810    -4.0970     0.3050 h1         1 CQX       0.027200
     40 H15         -1.8140    -3.3780    -1.3050 h1         1 CQX       0.027200
     41 H16          0.8650    -3.4850     0.1990 h1         1 CQX       0.017200
     42 H17          0.6110    -2.7370    -1.4000 h1         1 CQX       0.017200
     43 H18          1.1810    -0.4970    -0.4330 hc         1 CQX       0.054700
     44 H19          1.4340    -1.2370     1.1500 hc         1 CQX       0.054700
     45 H20          3.3060    -2.6210     0.2020 hc         1 CQX       0.036200
     46 H21          3.0530    -1.8810    -1.3790 hc         1 CQX       0.036200
     47 H22          3.6110     0.3720    -0.4150 hc         1 CQX       0.039700
     48 H23          3.8640    -0.3680     1.1660 hc         1 CQX       0.039700
     49 H24          5.7320    -1.7550     0.2190 hc         1 CQX       0.036700
     50 H25          5.4800    -1.0160    -1.3620 hc         1 CQX       0.036700
     51 H26          6.0380     1.2360    -0.3990 hc         1 CQX       0.037700
     52 H27          6.2900     0.4970     1.1830 hc         1 CQX       0.037700
     53 H28          8.1590    -0.8910     0.2360 hc         1 CQX       0.036700
     54 H29          7.9060    -0.1520    -1.3460 hc         1 CQX       0.036700
     55 H30          8.4650     2.1010    -0.3830 hc         1 CQX       0.037200
     56 H31          8.7170     1.3620     1.1990 hc         1 CQX       0.037200
     57 H32         10.5900    -0.0240     0.2530 hc         1 CQX       0.036200
     58 H33         10.3380     0.7140    -1.3290 hc         1 CQX       0.036200
     59 H34         10.9320     2.9700    -0.3800 hc         1 CQX       0.031367
     60 H35         11.1870     2.2250     1.2160 hc         1 CQX       0.031367
     61 H36         12.2450     1.7950    -0.1450 hc         1 CQX       0.031367
@<TRIPOS>BOND
     1     1     2 1   
     2     1     5 1   
     3     1     6 1   
     4     1    26 1   
     5     2     3 1   
     6     2     7 1   
     7     2    27 1   
     8     3     4 1   
     9     3     8 1   
    10     3    28 1   
    11     4     9 1   
    12     4    10 1   
    13     4    29 1   
    14     5     9 1   
    15     5    12 1   
    16     5    30 1   
    17     6    31 1   
    18     7    32 1   
    19     8    33 1   
    20    10    11 1   
    21    10    34 1   
    22    10    35 1   
    23    11    36 1   
    24    12    13 1   
    25    13    14 1   
    26    13    37 1   
    27    13    38 1   
    28    14    15 1   
    29    14    39 1   
    30    14    40 1   
    31    15    16 1   
    32    16    17 1   
    33    16    41 1   
    34    16    42 1   
    35    17    18 1   
    36    17    43 1   
    37    17    44 1   
    38    18    19 1   
    39    18    45 1   
    40    18    46 1   
    41    19    20 1   
    42    19    47 1   
    43    19    48 1   
    44    20    21 1   
    45    20    49 1   
    46    20    50 1   
    47    21    22 1   
    48    21    51 1   
    49    21    52 1   
    50    22    23 1   
    51    22    53 1   
    52    22    54 1   
    53    23    24 1   
    54    23    55 1   
    55    23    56 1   
    56    24    25 1   
    57    24    57 1   
    58    24    58 1   
    59    25    59 1   
    60    25    60 1   
    61    25    61 1   
@<TRIPOS>SUBSTRUCTURE
     1 CQX         1 TEMP              0 ****  ****    0 ROOT
