@<TRIPOS>MOLECULE
CQX
   61    61     1     0     0
SMALL
bcc


@<TRIPOS>ATOM
      1 C1          -5.1030     0.0890    -1.3080 c6         1 CQX       0.100100
      2 C2          -4.0670     1.2080    -1.4090 c6         1 CQX       0.120100
      3 C3          -3.8550     1.8740    -0.0540 c6         1 CQX       0.125100
      4 C4          -3.4990     0.8090     0.9860 c6         1 CQX       0.145100
      5 C6          -4.6920    -0.8770    -0.1930 c6         1 CQX       0.307900
      6 O49         -6.3510     0.6660    -1.0180 oh         1 CQX      -0.568800
      7 O55         -4.4460     2.2100    -2.3230 oh         1 CQX      -0.591800
      8 O7          -2.7930     2.7980    -0.1020 oh         1 CQX      -0.600800
      9 O5          -4.4970    -0.1980     1.0120 os         1 CQX      -0.409600
     10 C57         -3.4170     1.3930     2.3800 c3         1 CQX       0.146400
     11 O61         -2.9760     0.3950     3.2690 oh         1 CQX      -0.590800
     12 O16         -3.5520    -1.5490    -0.6210 os         1 CQX      -0.435600
     13 C18         -3.1260    -2.6010     0.2240 c3         1 CQX       0.137400
     14 C19         -1.7610    -3.0580    -0.2180 c3         1 CQX       0.139400
     15 O22         -0.8290    -2.0390     0.0310 os         1 CQX      -0.401600
     16 C25          0.4830    -2.3900    -0.3370 c3         1 CQX       0.139400
     17 C28          1.4250    -1.2570     0.0160 c3         1 CQX      -0.080400
     18 C31          2.8680    -1.5780    -0.3540 c3         1 CQX      -0.073400
     19 C34          3.8370    -0.4650     0.0260 c3         1 CQX      -0.074400
     20 C37          5.2830    -0.7760    -0.3350 c3         1 CQX      -0.074400
     21 C40          6.2520     0.3280     0.0730 c3         1 CQX      -0.074400
     22 C43          7.7010     0.0250    -0.2890 c3         1 CQX      -0.074400
     23 C46          8.6670     1.1210     0.1430 c3         1 CQX      -0.075400
     24 C49         10.1170     0.8300    -0.2240 c3         1 CQX      -0.075400
     25 C52         11.0730     1.9270     0.2230 c3         1 CQX      -0.088100
     26 H1          -5.1310    -0.4650    -2.2560 h1         1 CQX       0.045700
     27 H2          -3.1130     0.7520    -1.7060 h1         1 CQX       0.064700
     28 H3          -4.7890     2.3670     0.2550 h1         1 CQX       0.066700
     29 H4          -2.5230     0.3780     0.7230 h1         1 CQX       0.081700
     30 H5          -5.5080    -1.5870     0.0100 h2         1 CQX       0.061700
     31 H6          -7.0290    -0.0100    -1.1060 ho         1 CQX       0.402000
     32 H7          -4.2700     1.8970    -3.2160 ho         1 CQX       0.407000
     33 H8          -3.0040     3.4580    -0.7710 ho         1 CQX       0.421000
     34 H9          -2.7290     2.2460     2.3580 h1         1 CQX       0.034200
     35 H10         -4.4050     1.7840     2.6630 h1         1 CQX       0.034200
     36 H11         -2.9020     0.7900     4.1420 ho         1 CQX       0.401000
     37 H12         -3.0810    -2.2800     1.2700 h1         1 CQX       0.047200
     38 H13         -3.8250    -3.4450     0.1670 h1         1 CQX       0.047200
     39 H14         -1.5070    -3.9720     0.3380 h1         1 CQX       0.027200
     40 H15         -1.7780    -3.3320    -1.2830 h1         1 CQX       0.027200
     41 H16          0.7970    -3.3090     0.1800 h1         1 CQX       0.017200
     42 H17          0.5390    -2.6030    -1.4160 h1         1 CQX       0.017200
     43 H18          1.1060    -0.3450    -0.4980 hc         1 CQX       0.054700
     44 H19          1.3590    -1.0540     1.0890 hc         1 CQX       0.054700
     45 H20          3.1760    -2.5060     0.1400 hc         1 CQX       0.036200
     46 H21          2.9380    -1.7690    -1.4300 hc         1 CQX       0.036200
     47 H22          3.5300     0.4660    -0.4640 hc         1 CQX       0.039700
     48 H23          3.7640    -0.2770     1.1030 hc         1 CQX       0.039700
     49 H24          5.5840    -1.7150     0.1430 hc         1 CQX       0.036700
     50 H25          5.3600    -0.9470    -1.4150 hc         1 CQX       0.036700
     51 H26          5.9480     1.2690    -0.3990 hc         1 CQX       0.037700
     52 H27          6.1750     0.4940     1.1530 hc         1 CQX       0.037700
     53 H28          8.0010    -0.9230     0.1720 hc         1 CQX       0.036700
     54 H29          7.7820    -0.1260    -1.3710 hc         1 CQX       0.036700
     55 H30          8.3630     2.0720    -0.3090 hc         1 CQX       0.037200
     56 H31          8.5910     1.2650     1.2270 hc         1 CQX       0.037200
     57 H32         10.4190    -0.1230     0.2230 hc         1 CQX       0.036200
     58 H33         10.1960     0.6930    -1.3080 hc         1 CQX       0.036200
     59 H34         10.8030     2.8880    -0.2200 hc         1 CQX       0.031367
     60 H35         11.0530     2.0490     1.3070 hc         1 CQX       0.031367
     61 H36         12.1020     1.7080    -0.0660 hc         1 CQX       0.031367
@<TRIPOS>BOND
     1     1     2 1   
     2     1     5 1   
     3     1     6 1   
     4     1    26 1   
     5     2     3 1   
     6     2     7 1   
     7     2    27 1   
     8     3     4 1   
     9     3     8 1   
    10     3    28 1   
    11     4     9 1   
    12     4    10 1   
    13     4    29 1   
    14     5     9 1   
    15     5    12 1   
    16     5    30 1   
    17     6    31 1   
    18     7    32 1   
    19     8    33 1   
    20    10    11 1   
    21    10    34 1   
    22    10    35 1   
    23    11    36 1   
    24    12    13 1   
    25    13    14 1   
    26    13    37 1   
    27    13    38 1   
    28    14    15 1   
    29    14    39 1   
    30    14    40 1   
    31    15    16 1   
    32    16    17 1   
    33    16    41 1   
    34    16    42 1   
    35    17    18 1   
    36    17    43 1   
    37    17    44 1   
    38    18    19 1   
    39    18    45 1   
    40    18    46 1   
    41    19    20 1   
    42    19    47 1   
    43    19    48 1   
    44    20    21 1   
    45    20    49 1   
    46    20    50 1   
    47    21    22 1   
    48    21    51 1   
    49    21    52 1   
    50    22    23 1   
    51    22    53 1   
    52    22    54 1   
    53    23    24 1   
    54    23    55 1   
    55    23    56 1   
    56    24    25 1   
    57    24    57 1   
    58    24    58 1   
    59    25    59 1   
    60    25    60 1   
    61    25    61 1   
@<TRIPOS>SUBSTRUCTURE
     1 CQX         1 TEMP              0 ****  ****    0 ROOT
