@<TRIPOS>MOLECULE
CQY
   56    59     1     0     0
SMALL
abcg2


@<TRIPOS>ATOM
      1 C01         -5.6610     2.7230     2.8650 c3         1 CQY      -0.095100
      2 C02         -5.9390     1.3030     2.4360 c3         1 CQY       0.163600
      3 C04         -5.2850    -0.1600     0.6920 cc         1 CQY       0.175100
      4 C05         -4.5420    -0.4910    -0.4160 cd         1 CQY      -0.356600
      5 C07         -5.9520    -2.3520     0.3810 cd         1 CQY      -0.213000
      6 C08         -6.0880    -1.2440     1.1580 cc         1 CQY      -0.204000
      7 C09         -3.7050     0.4280    -1.2180 c          1 CQY       0.659700
      8 C12         -1.6710     0.7430    -2.5170 c6         1 CQY       0.086500
      9 C13         -0.5290     1.4480    -1.8020 c6         1 CQY       0.183800
     10 C15         -0.5560    -0.3090    -0.1360 c6         1 CQY       0.183800
     11 C16         -1.6980    -1.0000    -0.8650 c6         1 CQY       0.086500
     12 C17          1.5740     0.7390    -0.7600 ca         1 CQY       0.413000
     13 C18          2.1840     1.9610    -1.1190 ca         1 CQY      -0.246000
     14 C19          3.5000     2.1770    -0.8060 ca         1 CQY       0.027000
     15 C20          4.2720     1.2210    -0.1430 ca         1 CQY      -0.316200
     16 C21          3.7320    -0.0680     0.1260 ca         1 CQY       0.457000
     17 C22          2.3690    -0.2400    -0.1570 ca         1 CQY      -0.297000
     18 C24          5.9020    -1.2900     0.3110 c5         1 CQY       0.212800
     19 C25          6.0800    -2.7950     0.1630 c5         1 CQY      -0.095900
     20 C26          5.0120    -3.3430     1.1000 c5         1 CQY      -0.095900
     21 C27          3.8400    -2.4160     0.8240 c5         1 CQY       0.212800
     22 N11         -2.4860    -0.0290    -1.6010 n          1 CQY      -0.409800
     23 N14          0.2520     0.4920    -1.0400 nh         1 CQY      -0.807400
     24 N23          4.4690    -1.1250     0.5530 nh         1 CQY      -0.802400
     25 N28          5.5070     1.6850     0.3980 no         1 CQY       0.706200
     26 O03         -5.2030     1.0540     1.2400 os         1 CQY      -0.312100
     27 O10         -4.1390     1.5190    -1.5560 o          1 CQY      -0.569100
     28 O29          5.8630     1.2620     1.4820 o          1 CQY      -0.423500
     29 O30          6.1290     2.5380    -0.2090 o          1 CQY      -0.423500
     30 S06         -4.8540    -2.1180    -0.9020 ss         1 CQY       0.252000
     31 H1          -4.6040     2.8750     3.0790 hc         1 CQY       0.050700
     32 H2          -5.9700     3.4360     2.1010 hc         1 CQY       0.050700
     33 H3          -6.2230     2.9420     3.7730 hc         1 CQY       0.050700
     34 H4          -5.6340     0.5990     3.2160 h1         1 CQY       0.034700
     35 H5          -7.0090     1.1600     2.2550 h1         1 CQY       0.034700
     36 H6          -6.4560    -3.2990     0.5000 h4         1 CQY       0.153000
     37 H7          -6.7380    -1.2060     2.0190 ha         1 CQY       0.141000
     38 H8          -2.2830     1.4730    -3.0390 h1         1 CQY       0.066950
     39 H9          -1.2560     0.0590    -3.2620 h1         1 CQY       0.066950
     40 H10          0.0930     1.9090    -2.5670 h1         1 CQY       0.055200
     41 H11         -0.9230     2.2490    -1.1620 h1         1 CQY       0.055200
     42 H12         -0.9690     0.3260     0.6600 h1         1 CQY       0.055200
     43 H13          0.0430    -1.0770     0.3450 h1         1 CQY       0.055200
     44 H14         -1.2980    -1.7440    -1.5580 h1         1 CQY       0.066950
     45 H15         -2.3070    -1.5210    -0.1320 h1         1 CQY       0.066950
     46 H16          1.6260     2.7660    -1.5720 ha         1 CQY       0.125000
     47 H17          3.9270     3.1480    -1.0140 ha         1 CQY       0.140000
     48 H18          1.9340    -1.2080     0.0320 ha         1 CQY       0.119000
     49 H20          6.2120    -0.7430    -0.5840 h1         1 CQY       0.057200
     50 H21          5.8790    -3.1090    -0.8640 hc         1 CQY       0.058200
     51 H22          7.0900    -3.1100     0.4210 hc         1 CQY       0.058200
     52 H23          4.7570    -4.3840     0.9090 hc         1 CQY       0.058200
     53 H24          5.3340    -3.2590     2.1400 hc         1 CQY       0.058200
     54 H25          3.2820    -2.7750    -0.0500 h1         1 CQY       0.057200
     55 H26          3.1390    -2.3450     1.6580 h1         1 CQY       0.057200
     56 H19          6.4950    -0.9260     1.1510 h1         1 CQY       0.057200
@<TRIPOS>BOND
     1     1     2 1   
     2     1    31 1   
     3     1    32 1   
     4     1    33 1   
     5     2    26 1   
     6     2    34 1   
     7     2    35 1   
     8     3     4 2   
     9     3     6 1   
    10     3    26 1   
    11     4     7 1   
    12     4    30 1   
    13     5     6 2   
    14     5    30 1   
    15     5    36 1   
    16     6    37 1   
    17     7    22 1   
    18     7    27 2   
    19     8     9 1   
    20     8    22 1   
    21     8    38 1   
    22     8    39 1   
    23     9    23 1   
    24     9    40 1   
    25     9    41 1   
    26    10    11 1   
    27    10    23 1   
    28    10    42 1   
    29    10    43 1   
    30    11    22 1   
    31    11    44 1   
    32    11    45 1   
    33    12    13 ar  
    34    12    17 ar  
    35    12    23 1   
    36    13    14 ar  
    37    13    46 1   
    38    14    15 ar  
    39    14    47 1   
    40    15    16 ar  
    41    15    25 1   
    42    16    17 ar  
    43    16    24 1   
    44    17    48 1   
    45    18    19 1   
    46    18    24 1   
    47    18    49 1   
    48    18    56 1   
    49    19    20 1   
    50    19    50 1   
    51    19    51 1   
    52    20    21 1   
    53    20    52 1   
    54    20    53 1   
    55    21    24 1   
    56    21    54 1   
    57    21    55 1   
    58    25    28 1   
    59    25    29 1   
@<TRIPOS>SUBSTRUCTURE
     1 CQY         1 TEMP              0 ****  ****    0 ROOT
