@<TRIPOS>MOLECULE
CQY
   56    59     1     0     0
SMALL
No Charge or Current Charge


@<TRIPOS>ATOM
      1 C01         -7.2420     3.0090     1.9140 c3         1 CQY      -0.095100
      2 C02         -7.2310     1.4850     1.7140 c3         1 CQY       0.163600
      3 C04         -5.7370    -0.1530     0.6960 cc         1 CQY       0.175100
      4 C05         -4.5640    -0.4300     0.0390 cd         1 CQY      -0.356600
      5 C07         -6.0360    -2.4450     0.5510 cd         1 CQY      -0.213000
      6 C08         -6.5600    -1.2640     1.0030 cc         1 CQY      -0.204000
      7 C09         -3.6320     0.5790    -0.5430 c          1 CQY       0.659700
      8 C12         -1.5560     0.8850    -1.9580 c6         1 CQY       0.086500
      9 C13         -0.3230     1.5550    -1.2990 c6         1 CQY       0.183800
     10 C15         -0.2910    -0.2460     0.4200 c6         1 CQY       0.183800
     11 C16         -1.5560    -0.8850    -0.2240 c6         1 CQY       0.086500
     12 C17          1.8800     0.7660    -0.3340 ca         1 CQY       0.413000
     13 C18          2.4160     2.0600    -0.2500 ca         1 CQY      -0.246000
     14 C19          3.7870     2.2450    -0.0280 ca         1 CQY       0.027000
     15 C20          4.6240     1.1250     0.1130 ca         1 CQY      -0.316200
     16 C21          4.0970    -0.1710     0.0150 ca         1 CQY       0.457000
     17 C22          2.7260    -0.3380    -0.2030 ca         1 CQY      -0.297000
     18 C24          6.0110    -1.5970    -0.8680 c5         1 CQY       0.212800
     19 C25          6.1100    -3.1410    -0.7810 c5         1 CQY      -0.095900
     20 C26          5.8340    -3.3760     0.7260 c5         1 CQY      -0.095900
     21 C27          4.5830    -2.4890     0.9410 c5         1 CQY       0.212800
     22 N11         -2.3760     0.1060    -0.9870 n          1 CQY      -0.409800
     23 N14          0.5020     0.5570    -0.5570 nh         1 CQY      -0.807400
     24 N23          4.9130    -1.3150     0.0930 nh         1 CQY      -0.802400
     25 N28          6.0510     1.3300     0.3890 no         1 CQY       0.706200
     26 O03         -6.0220     1.1470     1.0170 os         1 CQY      -0.312100
     27 O10         -3.9260     1.7590    -0.6840 o          1 CQY      -0.569100
     28 O29          6.4750     0.9690     1.4940 o          1 CQY      -0.423500
     29 O30          6.6650     2.0970    -0.3620 o          1 CQY      -0.423500
     30 S06         -4.4710    -2.1860    -0.2490 ss         1 CQY       0.252000
     31 H1          -6.3760     3.3270     2.5060 hc         1 CQY       0.050700
     32 H2          -7.2160     3.5250     0.9470 hc         1 CQY       0.050700
     33 H3          -8.1520     3.3150     2.4430 hc         1 CQY       0.050700
     34 H4          -7.2690     0.9870     2.6910 h1         1 CQY       0.034700
     35 H5          -8.1120     1.1860     1.1310 h1         1 CQY       0.034700
     36 H6          -6.4470    -3.4440     0.6350 h4         1 CQY       0.153000
     37 H7          -7.5080    -1.1840     1.5250 ha         1 CQY       0.141000
     38 H8          -2.1660     1.6520    -2.4540 h1         1 CQY       0.066950
     39 H9          -1.2060     0.2020    -2.7450 h1         1 CQY       0.066950
     40 H10          0.2730     2.0370    -2.0880 h1         1 CQY       0.055200
     41 H11         -0.6670     2.3450    -0.6140 h1         1 CQY       0.055200
     42 H12         -0.6110     0.4010     1.2500 h1         1 CQY       0.055200
     43 H13          0.3180    -1.0500     0.8580 h1         1 CQY       0.055200
     44 H14         -1.2500    -1.6940    -0.9010 h1         1 CQY       0.066950
     45 H15         -2.1320    -1.3310     0.5950 h1         1 CQY       0.066950
     46 H16          1.7730     2.9300    -0.3410 ha         1 CQY       0.125000
     47 H17          4.1910     3.2540     0.0510 ha         1 CQY       0.140000
     48 H18          2.3160    -1.3350    -0.3030 ha         1 CQY       0.119000
     49 H20          5.7770    -1.2630    -1.8890 h1         1 CQY       0.057200
     50 H21          5.3510    -3.6240    -1.4070 hc         1 CQY       0.058200
     51 H22          7.0890    -3.5150    -1.1000 hc         1 CQY       0.058200
     52 H23          5.6450    -4.4280     0.9680 hc         1 CQY       0.058200
     53 H24          6.6720    -3.0390     1.3470 hc         1 CQY       0.058200
     54 H25          3.6740    -2.9970     0.5890 h1         1 CQY       0.057200
     55 H26          4.4490    -2.2220     1.9980 h1         1 CQY       0.057200
     56 H19          6.9510    -1.1220    -0.5520 h1         1 CQY       0.057200
@<TRIPOS>BOND
     1     1     2 1   
     2     1    31 1   
     3     1    32 1   
     4     1    33 1   
     5     2    26 1   
     6     2    34 1   
     7     2    35 1   
     8     3     4 2   
     9     3     6 1   
    10     3    26 1   
    11     4     7 1   
    12     4    30 1   
    13     5     6 2   
    14     5    30 1   
    15     5    36 1   
    16     6    37 1   
    17     7    22 1   
    18     7    27 2   
    19     8     9 1   
    20     8    22 1   
    21     8    38 1   
    22     8    39 1   
    23     9    23 1   
    24     9    40 1   
    25     9    41 1   
    26    10    11 1   
    27    10    23 1   
    28    10    42 1   
    29    10    43 1   
    30    11    22 1   
    31    11    44 1   
    32    11    45 1   
    33    12    13 ar  
    34    12    17 ar  
    35    12    23 1   
    36    13    14 ar  
    37    13    46 1   
    38    14    15 ar  
    39    14    47 1   
    40    15    16 ar  
    41    15    25 1   
    42    16    17 ar  
    43    16    24 1   
    44    17    48 1   
    45    18    19 1   
    46    18    24 1   
    47    18    49 1   
    48    18    56 1   
    49    19    20 1   
    50    19    50 1   
    51    19    51 1   
    52    20    21 1   
    53    20    52 1   
    54    20    53 1   
    55    21    24 1   
    56    21    54 1   
    57    21    55 1   
    58    25    28 1   
    59    25    29 1   
@<TRIPOS>SUBSTRUCTURE
     1 CQY         1 TEMP              0 ****  ****    0 ROOT
