@<TRIPOS>MOLECULE
CQZ
   25    25     1     0     0
SMALL
bcc


@<TRIPOS>ATOM
      1 CAA         -0.8370    -0.1330    -0.1300 ca         1 CQZ      -0.276300
      2 CAB         -0.0980     1.0610    -0.0730 ca         1 CQZ       0.621200
      3 CAC         -2.2160    -0.0810    -0.0420 ca         1 CQZ      -0.080600
      4 CAE         -2.8240     1.1670     0.1030 ca         1 CQZ      -0.259300
      5 CAF         -2.0120     2.2840     0.1520 ca         1 CQZ       0.393200
      6 CAG         -3.0470    -1.3630    -0.1020 c          1 CQZ       0.923200
      7 CAK          2.0650    -0.1130    -0.0090 c3         1 CQZ       0.225800
      8 CAL          3.5430     0.2240    -0.1140 c3         1 CQZ      -0.096400
      9 CAM          4.4050    -1.0060     0.0930 c3         1 CQZ       0.138400
     10 NAD         -0.6870     2.2500     0.0680 nb         1 CQZ      -0.777000
     11 NAJ          1.2630     1.0760    -0.1800 nu         1 CQZ      -0.881900
     12 OAH         -4.2790    -1.2250     0.0030 o          1 CQZ      -0.821800
     13 OAI         -2.4180    -2.4260    -0.2500 o          1 CQZ      -0.821800
     14 OAN          5.7610    -0.6270    -0.0040 oh         1 CQZ      -0.604800
     15 H1          -0.3440    -1.0880    -0.2420 ha         1 CQZ       0.152000
     16 H2          -3.8970     1.2640     0.1790 ha         1 CQZ       0.151000
     17 H3          -2.4520     3.2700     0.2680 h4         1 CQZ      -0.014900
     18 H4           1.8110    -0.8420    -0.7840 h1         1 CQZ       0.037700
     19 H5           1.8610    -0.5980     0.9550 h1         1 CQZ       0.037700
     20 H6           3.7480     0.6580    -1.0960 hc         1 CQZ       0.053700
     21 H7           3.8010     0.9780     0.6360 hc         1 CQZ       0.053700
     22 H8           4.1810    -1.4450     1.0730 h1         1 CQZ       0.019700
     23 H9           4.1460    -1.7630    -0.6590 h1         1 CQZ       0.019700
     24 H10          1.6850     1.9430     0.1160 hn         1 CQZ       0.409800
     25 H12          6.3020    -1.4050     0.1590 ho         1 CQZ       0.396000
@<TRIPOS>BOND
     1     1     2 ar  
     2     1     3 ar  
     3     1    15 1   
     4     2    10 ar  
     5     2    11 1   
     6     3     4 ar  
     7     3     6 1   
     8     4     5 ar  
     9     4    16 1   
    10     5    10 ar  
    11     5    17 1   
    12     6    12 1   
    13     6    13 1   
    14     7     8 1   
    15     7    11 1   
    16     7    18 1   
    17     7    19 1   
    18     8     9 1   
    19     8    20 1   
    20     8    21 1   
    21     9    14 1   
    22     9    22 1   
    23     9    23 1   
    24    11    24 1   
    25    14    25 1   
@<TRIPOS>SUBSTRUCTURE
     1 CQZ         1 TEMP              0 ****  ****    0 ROOT
