@<TRIPOS>MOLECULE
CQZ
   25    25     1     0     0
SMALL
No Charge or Current Charge


@<TRIPOS>ATOM
      1 CAA         -0.9460    -0.2220    -0.0090 ca         1 CQZ      -0.193000
      2 CAB         -0.1540     0.9350     0.0100 ca         1 CQZ       0.555900
      3 CAC         -2.3540    -0.0940    -0.0130 ca         1 CQZ      -0.080600
      4 CAE         -2.8610     1.2260     0.0040 ca         1 CQZ      -0.176000
      5 CAF         -1.9750     2.3160     0.0220 ca         1 CQZ       0.327900
      6 CAG         -3.2720    -1.3090    -0.0340 c          1 CQZ       0.712600
      7 CAK          2.1130    -0.2220     0.0080 c3         1 CQZ       0.225800
      8 CAL          3.5840     0.2350     0.0180 c3         1 CQZ      -0.096400
      9 CAM          4.5660    -0.9520     0.0110 c3         1 CQZ       0.161600
     10 NAD         -0.6310     2.1780     0.0260 nb         1 CQZ      -0.777000
     11 NAJ          1.2120     0.9350     0.0150 nu         1 CQZ      -0.937100
     12 OAH         -4.4820    -1.1270    -0.0360 o          1 CQZ      -0.716500
     13 OAI         -2.7680    -2.4240    -0.0470 o          1 CQZ      -0.716500
     14 OAN          5.9120    -0.4650     0.0210 oh         1 CQZ      -0.667000
     15 H1          -0.4790    -1.2010    -0.0210 ha         1 CQZ       0.134000
     16 H2          -3.9310     1.4130     0.0020 ha         1 CQZ       0.133000
     17 H3          -2.3540     3.3370     0.0350 h4         1 CQZ      -0.014900
     18 H4           1.9300    -0.8320    -0.8880 h1         1 CQZ       0.037700
     19 H5           1.9230    -0.8490     0.8900 h1         1 CQZ       0.037700
     20 H6           3.7750     0.8650    -0.8590 hc         1 CQZ       0.053700
     21 H7           3.7670     0.8480     0.9090 hc         1 CQZ       0.053700
     22 H8           4.3820    -1.5810     0.8920 h1         1 CQZ       0.019700
     23 H9           4.3890    -1.5630    -0.8840 h1         1 CQZ       0.019700
     24 H10          1.6150     1.8670     0.0310 hn         1 CQZ       0.465000
     25 H12          6.5000    -1.2530     0.0160 ho         1 CQZ       0.435000
@<TRIPOS>BOND
     1     1     2 ar  
     2     1     3 ar  
     3     1    15 1   
     4     2    10 ar  
     5     2    11 1   
     6     3     4 ar  
     7     3     6 1   
     8     4     5 ar  
     9     4    16 1   
    10     5    10 ar  
    11     5    17 1   
    12     6    12 1   
    13     6    13 1   
    14     7     8 1   
    15     7    11 1   
    16     7    18 1   
    17     7    19 1   
    18     8     9 1   
    19     8    20 1   
    20     8    21 1   
    21     9    14 1   
    22     9    22 1   
    23     9    23 1   
    24    11    24 1   
    25    14    25 1   
@<TRIPOS>SUBSTRUCTURE
     1 CQZ         1 TEMP              0 ****  ****    0 ROOT
