@<TRIPOS>MOLECULE
CR0
   40    40     1     0     0
SMALL
No Charge or Current Charge


@<TRIPOS>ATOM
      1 N1           1.8590     1.9650    -0.4080 n8         1 CR0      -1.029200
      2 CA1          2.0070     0.4980    -0.7440 c3         1 CR0       0.148500
      3 CB1          3.3980    -0.0690    -0.2670 c3         1 CR0       0.147300
      4 CG1          4.5970     0.5860    -0.9900 c3         1 CR0      -0.137100
      5 OG1          3.5880     0.1060     1.1470 oh         1 CR0      -0.630000
      6 C1           0.7350    -0.3730    -0.3180 c5         1 CR0       0.508600
      7 N2           0.4150    -0.2000     1.1300 n2         1 CR0      -0.574900
      8 N3          -0.4960     0.0110    -1.0240 n          1 CR0      -0.446800
      9 C2          -1.3970     0.5300    -0.1270 c          1 CR0       0.428700
     10 O2          -2.4950     1.0040    -0.4020 o          1 CR0      -0.513000
     11 CA2         -0.7560     0.3660     1.2010 ce         1 CR0       0.403300
     12 CA3         -0.7300     0.0160    -2.5000 c3         1 CR0      -0.012000
     13 C3          -0.2060    -1.2170    -3.2590 c          1 CR0       0.579900
     14 O3          -0.9180    -2.1580    -3.5990 o          1 CR0      -0.501100
     15 CB2         -1.4640     0.7580     2.4880 c3         1 CR0      -0.109700
     16 CG2         -1.8800    -0.4470     3.3730 c3         1 CR0      -0.053700
     17 CD1         -2.4670     0.0250     4.7230 c3         1 CR0      -0.089100
     18 CD2         -2.8600    -1.3960     2.6430 c3         1 CR0      -0.089100
     19 OE1          0.9810    -1.7340    -0.4980 oh         1 CR0      -0.623000
     20 HN11         1.7590     2.0530     0.6100 hn         1 CR0       0.415000
     21 HN12         2.7350     2.4560    -0.6180 hn         1 CR0       0.415000
     22 HA1          2.0360     0.4400    -1.8400 h1         1 CR0       0.069700
     23 HB1          3.4290    -1.1400    -0.5160 h1         1 CR0       0.097700
     24 HG11         5.5360     0.1100    -0.6810 hc         1 CR0       0.043367
     25 HG12         4.5020     0.4660    -2.0760 hc         1 CR0       0.043367
     26 HG13         4.6700     1.6570    -0.7680 hc         1 CR0       0.043367
     27 HG1          3.8100     1.0490     1.2960 ho         1 CR0       0.432000
     28 HA31        -0.2420     0.8980    -2.9320 h1         1 CR0       0.074200
     29 HA32        -1.8050     0.0910    -2.7070 h1         1 CR0       0.074200
     30 H3           0.8810    -1.2080    -3.4910 h4         1 CR0      -0.004800
     31 HB21        -2.3560     1.3530     2.2590 hc         1 CR0       0.071700
     32 HB22        -0.8050     1.4170     3.0650 hc         1 CR0       0.071700
     33 HG2         -0.9730    -1.0230     3.6010 hc         1 CR0       0.058700
     34 HD11        -2.7100    -0.8330     5.3610 hc         1 CR0       0.035367
     35 HD12        -1.7460     0.6520     5.2620 hc         1 CR0       0.035367
     36 HD13        -3.3820     0.6090     4.5690 hc         1 CR0       0.035367
     37 HD21        -3.7790    -0.8670     2.3610 hc         1 CR0       0.035367
     38 HD22        -2.4070    -1.8080     1.7330 hc         1 CR0       0.035367
     39 HD23        -3.1350    -2.2390     3.2890 hc         1 CR0       0.035367
     40 HE1          1.0770    -2.0540     0.4220 ho         1 CR0       0.471000
@<TRIPOS>BOND
     1     1     2 1   
     2     1    20 1   
     3     1    21 1   
     4     2     3 1   
     5     2     6 1   
     6     2    22 1   
     7     3     4 1   
     8     3     5 1   
     9     3    23 1   
    10     4    24 1   
    11     4    25 1   
    12     4    26 1   
    13     5    27 1   
    14     6     7 1   
    15     6     8 1   
    16     6    19 1   
    17     7    11 2   
    18     8     9 1   
    19     8    12 1   
    20     9    10 2   
    21     9    11 1   
    22    11    15 1   
    23    12    13 1   
    24    12    28 1   
    25    12    29 1   
    26    13    14 2   
    27    13    30 1   
    28    15    16 1   
    29    15    31 1   
    30    15    32 1   
    31    16    17 1   
    32    16    18 1   
    33    16    33 1   
    34    17    34 1   
    35    17    35 1   
    36    17    36 1   
    37    18    37 1   
    38    18    38 1   
    39    18    39 1   
    40    19    40 1   
@<TRIPOS>SUBSTRUCTURE
     1 CR0         1 TEMP              0 ****  ****    0 ROOT
