@<TRIPOS>MOLECULE
CR0
   40    40     1     0     0
SMALL
bcc


@<TRIPOS>ATOM
      1 N1           1.4240     1.6560    -0.2090 n8         1 CR0      -0.918800
      2 CA1          1.8920     0.3580    -0.6410 c3         1 CR0       0.148500
      3 CB1          3.1940    -0.1450     0.0130 c3         1 CR0       0.124100
      4 CG1          4.3340     0.8270    -0.2650 c3         1 CR0      -0.137100
      5 OG1          3.0660    -0.4030     1.3930 oh         1 CR0      -0.567800
      6 C1           0.7080    -0.6380    -0.5290 c5         1 CR0       0.485400
      7 N2           0.1730    -0.6180     0.8160 n2         1 CR0      -0.574900
      8 N3          -0.3970    -0.1650    -1.3580 n          1 CR0      -0.513800
      9 C2          -1.3430     0.3890    -0.5810 c          1 CR0       0.571200
     10 O2          -2.3170     1.0200    -0.9420 o          1 CR0      -0.588500
     11 CA2         -0.9330     0.0030     0.8120 ce         1 CR0       0.403300
     12 CA3         -0.3100     0.1180    -2.7600 c3         1 CR0      -0.012000
     13 C3          -1.5990    -0.2380    -3.4600 c          1 CR0       0.579900
     14 O3          -1.9950     0.3210    -4.4480 o          1 CR0      -0.501100
     15 CB2         -1.7650     0.3390     1.9940 c3         1 CR0      -0.109700
     16 CG2         -1.2850    -0.2380     3.3240 c3         1 CR0      -0.053700
     17 CD1         -2.0320     0.4300     4.4730 c3         1 CR0      -0.089100
     18 CD2         -1.4570    -1.7530     3.3770 c3         1 CR0      -0.089100
     19 OE1          1.1460    -1.8840    -0.9140 oh         1 CR0      -0.560800
     20 HN11         1.4540     1.7600     0.7970 hn         1 CR0       0.359800
     21 HN12         1.9870     2.3950    -0.6060 hn         1 CR0       0.359800
     22 HA1          2.1160     0.4380    -1.7100 h1         1 CR0       0.069700
     23 HB1          3.4500    -1.1050    -0.4390 h1         1 CR0       0.097700
     24 HG11         5.2650     0.4530     0.1590 hc         1 CR0       0.043367
     25 HG12         4.4870     0.9620    -1.3370 hc         1 CR0       0.043367
     26 HG13         4.1400     1.8110     0.1690 hc         1 CR0       0.043367
     27 HG1          2.8890     0.4230     1.8540 ho         1 CR0       0.393000
     28 HA31         0.4640    -0.5200    -3.1990 h1         1 CR0       0.074200
     29 HA32        -0.0400     1.1580    -2.9620 h1         1 CR0       0.074200
     30 H3          -2.1310    -1.1040    -3.0270 h4         1 CR0      -0.004800
     31 HB21        -2.7980     0.0320     1.7950 hc         1 CR0       0.071700
     32 HB22        -1.8020     1.4330     2.0490 hc         1 CR0       0.071700
     33 HG2         -0.2190    -0.0090     3.4250 hc         1 CR0       0.058700
     34 HD11        -1.6890     0.0490     5.4360 hc         1 CR0       0.035367
     35 HD12        -1.8850     1.5120     4.4700 hc         1 CR0       0.035367
     36 HD13        -3.1060     0.2410     4.4060 hc         1 CR0       0.035367
     37 HD21        -2.5080    -2.0290     3.2630 hc         1 CR0       0.035367
     38 HD22        -0.8900    -2.2530     2.5920 hc         1 CR0       0.035367
     39 HD23        -1.1160    -2.1480     4.3360 hc         1 CR0       0.035367
     40 HE1          0.4330    -2.5250    -0.7990 ho         1 CR0       0.432000
@<TRIPOS>BOND
     1     1     2 1   
     2     1    20 1   
     3     1    21 1   
     4     2     3 1   
     5     2     6 1   
     6     2    22 1   
     7     3     4 1   
     8     3     5 1   
     9     3    23 1   
    10     4    24 1   
    11     4    25 1   
    12     4    26 1   
    13     5    27 1   
    14     6     7 1   
    15     6     8 1   
    16     6    19 1   
    17     7    11 2   
    18     8     9 1   
    19     8    12 1   
    20     9    10 2   
    21     9    11 1   
    22    11    15 1   
    23    12    13 1   
    24    12    28 1   
    25    12    29 1   
    26    13    14 2   
    27    13    30 1   
    28    15    16 1   
    29    15    31 1   
    30    15    32 1   
    31    16    17 1   
    32    16    18 1   
    33    16    33 1   
    34    17    34 1   
    35    17    35 1   
    36    17    36 1   
    37    18    37 1   
    38    18    38 1   
    39    18    39 1   
    40    19    40 1   
@<TRIPOS>SUBSTRUCTURE
     1 CR0         1 TEMP              0 ****  ****    0 ROOT
