@<TRIPOS>MOLECULE
CR1
   31    31     1     0     0
SMALL
No Charge or Current Charge


@<TRIPOS>ATOM
      1 C2          -1.6080     0.2170    -0.5880 c6         1 CR1       0.102300
      2 O2          -2.9000    -0.2730    -0.1530 oh         1 CR1      -0.717000
      3 C4           0.0540     0.2510    -2.5310 c6         1 CR1       0.143300
      4 C5           1.1460    -0.2340    -1.5250 c6         1 CR1       0.179300
      5 C6           2.5710     0.3000    -1.8920 c3         1 CR1       0.172600
      6 C1          -0.4360    -0.2850     0.3230 c6         1 CR1       0.310700
      7 C3          -1.3400    -0.2450    -2.0490 c6         1 CR1       0.139300
      8 O3          -2.3820     0.2330    -2.9180 oh         1 CR1      -0.666000
      9 O4           0.2970    -0.2160    -3.8720 oh         1 CR1      -0.716000
     10 O5           0.8140     0.2210    -0.1850 os         1 CR1      -0.465000
     11 N2          -0.5570     0.2250     1.6820 ns         1 CR1      -0.491900
     12 O6           3.5930    -0.0940    -0.9510 oh         1 CR1      -0.707000
     13 C7           0.0800    -0.2970     2.7650 c          1 CR1       0.645100
     14 O7           0.7140    -1.3410     2.7730 o          1 CR1      -0.518000
     15 C8           0.3890     0.0950     5.1110 c3         1 CR1       0.170900
     16 O8          -0.1710     0.4940     3.8460 os         1 CR1      -0.459100
     17 H21         -1.6020     1.3170    -0.5690 h1         1 CR1       0.051700
     18 H1O2        -3.0010    -0.0420     0.8010 ho         1 CR1       0.519000
     19 H41          0.0490     1.3520    -2.5200 h1         1 CR1       0.052700
     20 H51          1.1830    -1.3330    -1.5290 h1         1 CR1       0.067700
     21 H61          2.8290    -0.0670    -2.8940 h1         1 CR1       0.035200
     22 H62          2.5190     1.3960    -1.9520 h1         1 CR1       0.035200
     23 H11         -0.4190    -1.3870     0.3450 h2         1 CR1       0.088700
     24 H31         -1.3320    -1.3460    -2.0560 h1         1 CR1       0.058700
     25 H1O3        -3.2050     0.1550    -2.3800 ho         1 CR1       0.466000
     26 H1O4        -0.5720    -0.1200    -4.3340 ho         1 CR1       0.525000
     27 H1N2        -1.0130     1.1140     1.8300 hn         1 CR1       0.322500
     28 H1O6         4.4280     0.3470    -1.2330 ho         1 CR1       0.503000
     29 H81          0.1160     0.8150     5.8930 h1         1 CR1       0.050033
     30 H82          0.0140    -0.8920     5.4120 h1         1 CR1       0.050033
     31 H83          1.4840     0.0500     5.0580 h1         1 CR1       0.050033
@<TRIPOS>BOND
     1     1     2 1   
     2     1     6 1   
     3     1     7 1   
     4     1    17 1   
     5     2    18 1   
     6     3     4 1   
     7     3     7 1   
     8     3     9 1   
     9     3    19 1   
    10     4     5 1   
    11     4    10 1   
    12     4    20 1   
    13     5    12 1   
    14     5    21 1   
    15     5    22 1   
    16     6    10 1   
    17     6    11 1   
    18     6    23 1   
    19     7     8 1   
    20     7    24 1   
    21     8    25 1   
    22     9    26 1   
    23    11    13 1   
    24    11    27 1   
    25    12    28 1   
    26    13    14 2   
    27    13    16 1   
    28    15    16 1   
    29    15    29 1   
    30    15    30 1   
    31    15    31 1   
@<TRIPOS>SUBSTRUCTURE
     1 CR1         1 TEMP              0 ****  ****    0 ROOT
