@<TRIPOS>MOLECULE
CR1
   31    31     1     0     0
SMALL
abcg2


@<TRIPOS>ATOM
      1 C2          -1.5560     0.2390    -0.5240 c6         1 CR1       0.102300
      2 O2          -2.7460    -0.3460    -0.0590 oh         1 CR1      -0.717000
      3 C4           0.0230     0.2210    -2.4740 c6         1 CR1       0.143300
      4 C5           1.1250    -0.1680    -1.4880 c6         1 CR1       0.179300
      5 C6           2.4770     0.3660    -1.9100 c3         1 CR1       0.172600
      6 C1          -0.3600    -0.1550     0.3450 c6         1 CR1       0.310700
      7 C3          -1.3250    -0.2560    -1.9460 c6         1 CR1       0.139300
      8 O3          -2.3150     0.2070    -2.8330 oh         1 CR1      -0.666000
      9 O4           0.3200    -0.3660    -3.7160 oh         1 CR1      -0.716000
     10 O5           0.8270     0.3600    -0.2120 os         1 CR1      -0.465000
     11 N2          -0.5120     0.3630     1.6610 ns         1 CR1      -0.491900
     12 O6           3.4510    -0.1030    -1.0080 oh         1 CR1      -0.707000
     13 C7           0.0160    -0.2580     2.7470 c          1 CR1       0.645100
     14 O7           0.5090    -1.3640     2.7490 o          1 CR1      -0.518000
     15 C8           0.3790    -0.0180     5.0570 c3         1 CR1       0.170900
     16 O8          -0.1080     0.5110     3.8260 os         1 CR1      -0.459100
     17 H21         -1.6290     1.3370    -0.5400 h1         1 CR1       0.051700
     18 H1O2        -3.0120     0.0950     0.7540 ho         1 CR1       0.519000
     19 H41         -0.0010     1.3200    -2.5500 h1         1 CR1       0.052700
     20 H51          1.1770    -1.2690    -1.4380 h1         1 CR1       0.067700
     21 H61          2.6760     0.0290    -2.9320 h1         1 CR1       0.035200
     22 H62          2.4360     1.4640    -1.9330 h1         1 CR1       0.035200
     23 H11         -0.3090    -1.2500     0.4060 h2         1 CR1       0.088700
     24 H31         -1.3060    -1.3580    -1.9240 h1         1 CR1       0.058700
     25 H1O3        -3.1510    -0.2110    -2.6040 ho         1 CR1       0.466000
     26 H1O4        -0.3660    -0.1110    -4.3430 ho         1 CR1       0.525000
     27 H1N2        -0.7780     1.3330     1.7570 hn         1 CR1       0.322500
     28 H1O6         4.3090     0.2010    -1.3140 ho         1 CR1       0.503000
     29 H81          0.2020     0.7520     5.8010 h1         1 CR1       0.050033
     30 H82         -0.1570    -0.9230     5.3440 h1         1 CR1       0.050033
     31 H83          1.4460    -0.2320     5.0080 h1         1 CR1       0.050033
@<TRIPOS>BOND
     1     1     2 1   
     2     1     6 1   
     3     1     7 1   
     4     1    17 1   
     5     2    18 1   
     6     3     4 1   
     7     3     7 1   
     8     3     9 1   
     9     3    19 1   
    10     4     5 1   
    11     4    10 1   
    12     4    20 1   
    13     5    12 1   
    14     5    21 1   
    15     5    22 1   
    16     6    10 1   
    17     6    11 1   
    18     6    23 1   
    19     7     8 1   
    20     7    24 1   
    21     8    25 1   
    22     9    26 1   
    23    11    13 1   
    24    11    27 1   
    25    12    28 1   
    26    13    14 2   
    27    13    16 1   
    28    15    16 1   
    29    15    29 1   
    30    15    30 1   
    31    15    31 1   
@<TRIPOS>SUBSTRUCTURE
     1 CR1         1 TEMP              0 ****  ****    0 ROOT
