@<TRIPOS>MOLECULE
CR2
   32    33     1     0     0
SMALL
bcc


@<TRIPOS>ATOM
      1 N1          -1.2370     3.4390    -0.4140 n8         1 CR2      -0.879800
      2 CA1         -2.1930     2.3550    -0.4360 c3         1 CR2       0.114500
      3 C1          -1.5130     1.0320    -0.4790 cc         1 CR2       0.506900
      4 N2          -0.2470     0.8550    -0.3120 nd         1 CR2      -0.656300
      5 N3          -2.2240    -0.1290    -0.6850 n          1 CR2      -0.373300
      6 C2          -1.3500    -1.1840    -0.5760 c          1 CR2       0.681700
      7 O2          -1.6340    -2.3640    -0.6500 o          1 CR2      -0.594500
      8 CA2         -0.0430    -0.5180    -0.3680 cd         1 CR2       0.033400
      9 CA3         -3.6560    -0.2680    -0.7080 c3         1 CR2      -0.059000
     10 C3          -4.2950    -0.2760     0.7010 c          1 CR2       0.919600
     11 O3          -3.5380    -0.0940     1.6670 o          1 CR2      -0.822300
     12 CB2          1.1150    -1.1980    -0.2630 ce         1 CR2      -0.058200
     13 CG2          2.4610    -0.6980    -0.0840 ca         1 CR2      -0.070800
     14 CD1          3.5050    -1.6270     0.0160 ca         1 CR2      -0.071500
     15 CD2          2.7940     0.6640    -0.0090 ca         1 CR2      -0.071500
     16 CE1          4.8190    -1.2300     0.1830 ca         1 CR2      -0.207000
     17 CE2          4.1020     1.0710     0.1570 ca         1 CR2      -0.207000
     18 CZ           5.1270     0.1270     0.2550 ca         1 CR2       0.127100
     19 OH           6.3800     0.5790     0.4160 oh         1 CR2      -0.502100
     20 OXT         -5.5250    -0.4620     0.7070 o          1 CR2      -0.822300
     21 HN11        -1.7410     4.3130    -0.3480 hn         1 CR2       0.340300
     22 HN12        -0.6720     3.3750     0.4230 hn         1 CR2       0.340300
     23 HA11        -2.8830     2.3310     0.4210 h1         1 CR2       0.066700
     24 HA12        -2.8270     2.4530    -1.3230 h1         1 CR2       0.066700
     25 HA31        -4.0900     0.5360    -1.3050 h1         1 CR2       0.045200
     26 HA32        -3.8990    -1.1960    -1.2260 h1         1 CR2       0.045200
     27 HB2          1.0250    -2.2780    -0.3250 ha         1 CR2       0.132000
     28 HD1          3.2830    -2.6850    -0.0400 ha         1 CR2       0.151000
     29 HD2          2.0140     1.4080    -0.0820 ha         1 CR2       0.151000
     30 HE1          5.6020    -1.9750     0.2550 ha         1 CR2       0.129000
     31 HE2          4.3400     2.1260     0.2120 ha         1 CR2       0.129000
     32 HOH          7.0020    -0.1560     0.4720 ho         1 CR2       0.417000
@<TRIPOS>BOND
     1     1     2 1   
     2     1    21 1   
     3     1    22 1   
     4     2     3 1   
     5     2    23 1   
     6     2    24 1   
     7     3     4 2   
     8     3     5 1   
     9     4     8 1   
    10     5     6 1   
    11     5     9 1   
    12     6     7 2   
    13     6     8 1   
    14     8    12 2   
    15     9    10 1   
    16     9    25 1   
    17     9    26 1   
    18    10    11 1   
    19    10    20 1   
    20    12    13 1   
    21    12    27 1   
    22    13    14 ar  
    23    13    15 ar  
    24    14    16 ar  
    25    14    28 1   
    26    15    17 ar  
    27    15    29 1   
    28    16    18 ar  
    29    16    30 1   
    30    17    18 ar  
    31    17    31 1   
    32    18    19 1   
    33    19    32 1   
@<TRIPOS>SUBSTRUCTURE
     1 CR2         1 TEMP              0 ****  ****    0 ROOT
