@<TRIPOS>MOLECULE
CR2
   32    33     1     0     0
SMALL
No Charge or Current Charge


@<TRIPOS>ATOM
      1 N1          -2.0950     3.4630    -0.8050 n8         1 CR2      -0.990200
      2 CA1         -2.0680     2.4270     0.2870 c3         1 CR2       0.114500
      3 C1          -1.4500     1.0750    -0.0880 cc         1 CR2       0.506900
      4 N2          -0.1350     0.8290     0.0200 nd         1 CR2      -0.656300
      5 N3          -2.1840     0.0100    -0.5910 n          1 CR2      -0.306300
      6 C2          -1.3510    -1.0510    -0.8380 c          1 CR2       0.539200
      7 O2          -1.6400    -2.1610    -1.2710 o          1 CR2      -0.519000
      8 CA2         -0.0470    -0.4830    -0.4380 cd         1 CR2       0.033400
      9 CA3         -3.6570    -0.0440    -0.8010 c3         1 CR2      -0.059000
     10 C3          -4.4540    -0.5600     0.4190 c          1 CR2       0.709000
     11 O3          -4.2260    -0.0620     1.5120 o          1 CR2      -0.717000
     12 CB2          1.1510    -1.1700    -0.4930 ce         1 CR2      -0.108200
     13 CG2          2.5500    -0.7340    -0.1930 ca         1 CR2      -0.070800
     14 CD1          3.4800    -1.6900     0.2640 ca         1 CR2      -0.053500
     15 CD2          2.9760     0.5970    -0.3850 ca         1 CR2      -0.053500
     16 CE1          4.8080    -1.3190     0.5440 ca         1 CR2      -0.189000
     17 CE2          4.3040     0.9660    -0.1060 ca         1 CR2      -0.189000
     18 CZ           5.2170     0.0100     0.3600 ca         1 CR2       0.127100
     19 OH           6.5010     0.3760     0.6280 oh         1 CR2      -0.541100
     20 OXT         -5.2550    -1.4660     0.2440 o          1 CR2      -0.717000
     21 HN11        -2.4420     4.3530    -0.4230 hn         1 CR2       0.395500
     22 HN12        -1.1290     3.6800    -1.0850 hn         1 CR2       0.395500
     23 HA11        -1.5000     2.8320     1.1360 h1         1 CR2       0.066700
     24 HA12        -3.0940     2.2640     0.6420 h1         1 CR2       0.066700
     25 HA31        -4.0290     0.9570    -1.0510 h1         1 CR2       0.045200
     26 HA32        -3.8710    -0.6970    -1.6570 h1         1 CR2       0.045200
     27 HB2          1.0620    -2.2090    -0.8110 ha         1 CR2       0.182000
     28 HD1          3.1710    -2.7230     0.4100 ha         1 CR2       0.133000
     29 HD2          2.2870     1.3480    -0.7630 ha         1 CR2       0.133000
     30 HE1          5.5090    -2.0690     0.9010 ha         1 CR2       0.111000
     31 HE2          4.6240     1.9940    -0.2560 ha         1 CR2       0.111000
     32 HOH          6.9890    -0.4160     0.9390 ho         1 CR2       0.456000
@<TRIPOS>BOND
     1     1     2 1   
     2     1    21 1   
     3     1    22 1   
     4     2     3 1   
     5     2    23 1   
     6     2    24 1   
     7     3     4 2   
     8     3     5 1   
     9     4     8 1   
    10     5     6 1   
    11     5     9 1   
    12     6     7 2   
    13     6     8 1   
    14     8    12 2   
    15     9    10 1   
    16     9    25 1   
    17     9    26 1   
    18    10    11 1   
    19    10    20 1   
    20    12    13 1   
    21    12    27 1   
    22    13    14 ar  
    23    13    15 ar  
    24    14    16 ar  
    25    14    28 1   
    26    15    17 ar  
    27    15    29 1   
    28    16    18 ar  
    29    16    30 1   
    30    17    18 ar  
    31    17    31 1   
    32    18    19 1   
    33    19    32 1   
@<TRIPOS>SUBSTRUCTURE
     1 CR2         1 TEMP              0 ****  ****    0 ROOT
