@<TRIPOS>MOLECULE
CR3
   46    49     1     0     0
SMALL
abcg2


@<TRIPOS>ATOM
      1 C1          -5.0500     0.4300     0.1800 ca         1 CR3      -0.312900
      2 C2          -4.4570     1.7030     0.0540 ca         1 CR3      -0.108000
      3 C3          -3.0920     1.8360    -0.0920 ca         1 CR3      -0.107000
      4 C4          -2.3220     0.6770    -0.1210 ca         1 CR3       0.040000
      5 C5          -2.8980    -0.6190    -0.0030 ca         1 CR3      -0.062000
      6 C6          -4.2770    -0.7290     0.1540 ca         1 CR3      -0.043000
      7 C7          -6.5000     0.3280     0.3410 ce         1 CR3       0.529400
      8 N1          -7.0080    -0.6350     1.0780 nv         1 CR3      -0.596200
      9 N2          -7.2860     1.1990    -0.2520 nv         1 CR3      -0.580300
     10 N3          -0.9890     0.5100    -0.2540 na         1 CR3      -0.248900
     11 CN4         -1.8310    -1.5540    -0.0810 cc         1 CR3      -0.353000
     12 C8          -0.6660    -0.8240    -0.2310 cc         1 CR3       0.134900
     13 C9           0.7190    -1.2420    -0.3490 cd         1 CR3      -0.320200
     14 C10          1.0240    -2.6150    -0.3410 cd         1 CR3      -0.102000
     15 C11          2.3190    -3.0580    -0.4390 cc         1 CR3      -0.281000
     16 C12          3.3640    -2.1210    -0.5430 cc         1 CR3      -0.214000
     17 C13          3.0980    -0.7710    -0.5530 cd         1 CR3      -0.013100
     18 O5           4.0320     0.2040    -0.6660 os         1 CR3      -0.323100
     19 C14          1.7500    -0.2570    -0.4630 c          1 CR3       0.573500
     20 O6           1.5430     0.9980    -0.4870 o          1 CR3      -0.724100
     21 C1B          6.1760     1.1450    -0.9370 c5         1 CR3      -0.091900
     22 C2B          5.4090    -0.1330    -0.6330 c5         1 CR3       0.167300
     23 C3B          5.8750    -0.4700     0.7820 c5         1 CR3      -0.091900
     24 C4B          6.0170     0.8920     1.4880 c5         1 CR3      -0.071900
     25 C5B          6.0900     1.9500     0.3640 c5         1 CR3      -0.071900
     26 HC2         -5.0670     2.5950     0.1110 ha         1 CR3       0.097000
     27 HC3         -2.6390     2.8160    -0.1730 ha         1 CR3       0.131000
     28 HC6         -4.7370    -1.7080     0.2210 ha         1 CR3       0.104000
     29 HH11        -8.0030    -0.7830     1.1550 hn         1 CR3       0.363250
     30 HH12        -6.4140    -1.2090     1.6520 hn         1 CR3       0.363250
     31 HH21        -6.9170     1.8500    -0.9250 hn         1 CR3       0.363250
     32 HH22        -8.2840     1.2060    -0.1080 hn         1 CR3       0.363250
     33 HN3         -0.2260     1.1850    -0.3530 hn         1 CR3       0.422000
     34 HCN4        -1.9150    -2.6270    -0.0250 ha         1 CR3       0.204000
     35 H6           0.2200    -3.3360    -0.2580 ha         1 CR3       0.152000
     36 H7           2.5450    -4.1160    -0.4320 ha         1 CR3       0.162000
     37 HC4          4.3810    -2.4870    -0.6120 ha         1 CR3       0.162000
     38 H1A          7.2130     0.8760    -1.1520 hc         1 CR3       0.045950
     39 H1B          5.7900     1.6740    -1.8100 hc         1 CR3       0.045950
     40 H2A          5.6280    -0.9280    -1.3560 h1         1 CR3       0.040700
     41 H3A          5.2050    -1.1540     1.3040 hc         1 CR3       0.045950
     42 H3B          6.8450    -0.9690     0.7120 hc         1 CR3       0.045950
     43 H4A          6.9060     0.9110     2.1190 hc         1 CR3       0.040450
     44 H4B          5.1670     1.0810     2.1460 hc         1 CR3       0.040450
     45 H5A          6.9380     2.6240     0.4810 hc         1 CR3       0.040450
     46 H5B          5.1920     2.5690     0.3640 hc         1 CR3       0.040450
@<TRIPOS>BOND
     1     1     2 ar  
     2     1     6 ar  
     3     1     7 1   
     4     2     3 ar  
     5     2    26 1   
     6     3     4 ar  
     7     3    27 1   
     8     4     5 ar  
     9     4    10 2   
    10     5     6 ar  
    11     5    11 2   
    12     6    28 1   
    13     7     8 2   
    14     7     9 1   
    15     8    29 1   
    16     8    30 1   
    17     9    31 1   
    18     9    32 1   
    19    10    12 1   
    20    10    33 1   
    21    11    12 1   
    22    11    34 1   
    23    12    13 2   
    24    13    14 1   
    25    13    19 1   
    26    14    15 2   
    27    14    35 1   
    28    15    16 1   
    29    15    36 1   
    30    16    17 2   
    31    16    37 1   
    32    17    18 1   
    33    17    19 1   
    34    18    22 1   
    35    19    20 2   
    36    21    22 1   
    37    21    25 1   
    38    21    38 1   
    39    21    39 1   
    40    22    23 1   
    41    22    40 1   
    42    23    24 1   
    43    23    41 1   
    44    23    42 1   
    45    24    25 1   
    46    24    43 1   
    47    24    44 1   
    48    25    45 1   
    49    25    46 1   
@<TRIPOS>SUBSTRUCTURE
     1 CR3         1 TEMP              0 ****  ****    0 ROOT
