@<TRIPOS>MOLECULE
CR3
   46    49     1     0     0
SMALL
No Charge or Current Charge


@<TRIPOS>ATOM
      1 C1          -5.1930     0.3740     0.1940 ca         1 CR3      -0.312900
      2 C2          -4.6250     1.6780     0.0860 ca         1 CR3      -0.108000
      3 C3          -3.2320     1.8580    -0.0550 ca         1 CR3      -0.107000
      4 C4          -2.4190     0.7210    -0.0880 ca         1 CR3       0.040000
      5 C5          -2.9620    -0.5490     0.0150 ca         1 CR3      -0.062000
      6 C6          -4.3380    -0.7590     0.1570 ca         1 CR3      -0.043000
      7 C7          -6.6640     0.1990     0.3420 ce         1 CR3       0.529400
      8 N1          -7.1530    -0.8700     1.0380 nv         1 CR3      -0.596200
      9 N2          -7.5130     1.1090    -0.2220 nv         1 CR3      -0.580300
     10 N3          -1.0350     0.6480    -0.2200 na         1 CR3      -0.248900
     11 CN4         -1.8700    -1.4870    -0.0560 cc         1 CR3      -0.353000
     12 C8          -0.6890    -0.6930    -0.2020 cc         1 CR3       0.134900
     13 C9           0.6610    -1.0290    -0.3220 cd         1 CR3      -0.320200
     14 C10          0.9370    -2.4440    -0.2940 cd         1 CR3      -0.102000
     15 C11          2.2450    -2.8660    -0.4060 cc         1 CR3      -0.281000
     16 C12          3.3510    -1.9620    -0.5480 cc         1 CR3      -0.214000
     17 C13          3.1430    -0.5850    -0.5810 cd         1 CR3      -0.013100
     18 O5           4.1890     0.3300    -0.7120 os         1 CR3      -0.323100
     19 C14          1.7590    -0.0130    -0.4680 c          1 CR3       0.573500
     20 O6           1.5540     1.2040    -0.4950 o          1 CR3      -0.724100
     21 C1B          6.5180     0.9670    -0.9720 c5         1 CR3      -0.091900
     22 C2B          5.5460    -0.2050    -0.6810 c5         1 CR3       0.167300
     23 C3B          5.9670    -0.5410     0.7800 c5         1 CR3      -0.091900
     24 C4B          6.0100     0.8580     1.4570 c5         1 CR3      -0.071900
     25 C5B          6.4680     1.8330     0.3250 c5         1 CR3      -0.071900
     26 HC2         -5.2600     2.5610     0.1250 ha         1 CR3       0.097000
     27 HC3         -2.8030     2.8550    -0.1330 ha         1 CR3       0.131000
     28 HC6         -4.7260    -1.7730     0.2220 ha         1 CR3       0.104000
     29 HH11        -8.1230    -0.8550     1.3210 hn         1 CR3       0.363250
     30 HH12        -6.5030    -1.3930     1.6090 hn         1 CR3       0.363250
     31 HH21        -7.1190     1.7580    -0.8890 hn         1 CR3       0.363250
     32 HH22        -8.4890     0.8650    -0.3190 hn         1 CR3       0.363250
     33 HN3         -0.3680     1.4100    -0.3150 hn         1 CR3       0.422000
     34 HCN4        -1.9190    -2.5700    -0.0100 ha         1 CR3       0.204000
     35 H6           0.1550    -3.1890    -0.1890 ha         1 CR3       0.152000
     36 H7           2.4620    -3.9320    -0.3870 ha         1 CR3       0.162000
     37 HC4          4.3300    -2.4210    -0.6280 ha         1 CR3       0.162000
     38 H1A          7.5320     0.5900    -1.1500 hc         1 CR3       0.045950
     39 H1B          6.2320     1.5360    -1.8640 hc         1 CR3       0.045950
     40 H2A          5.6730    -1.0180    -1.4080 h1         1 CR3       0.040700
     41 H3A          5.2760    -1.2220     1.2880 hc         1 CR3       0.045950
     42 H3B          6.9530    -1.0200     0.7990 hc         1 CR3       0.045950
     43 H4A          6.6900     0.8730     2.3170 hc         1 CR3       0.040450
     44 H4B          5.0200     1.1410     1.8340 hc         1 CR3       0.040450
     45 H5A          7.4440     2.2820     0.5420 hc         1 CR3       0.040450
     46 H5B          5.7570     2.6620     0.2200 hc         1 CR3       0.040450
@<TRIPOS>BOND
     1     1     2 ar  
     2     1     6 ar  
     3     1     7 1   
     4     2     3 ar  
     5     2    26 1   
     6     3     4 ar  
     7     3    27 1   
     8     4     5 ar  
     9     4    10 2   
    10     5     6 ar  
    11     5    11 2   
    12     6    28 1   
    13     7     8 2   
    14     7     9 1   
    15     8    29 1   
    16     8    30 1   
    17     9    31 1   
    18     9    32 1   
    19    10    12 1   
    20    10    33 1   
    21    11    12 1   
    22    11    34 1   
    23    12    13 2   
    24    13    14 1   
    25    13    19 1   
    26    14    15 2   
    27    14    35 1   
    28    15    16 1   
    29    15    36 1   
    30    16    17 2   
    31    16    37 1   
    32    17    18 1   
    33    17    19 1   
    34    18    22 1   
    35    19    20 2   
    36    21    22 1   
    37    21    25 1   
    38    21    38 1   
    39    21    39 1   
    40    22    23 1   
    41    22    40 1   
    42    23    24 1   
    43    23    41 1   
    44    23    42 1   
    45    24    25 1   
    46    24    43 1   
    47    24    44 1   
    48    25    45 1   
    49    25    46 1   
@<TRIPOS>SUBSTRUCTURE
     1 CR3         1 TEMP              0 ****  ****    0 ROOT
