@<TRIPOS>MOLECULE
CR4
   31    33     1     0     0
SMALL
abcg2


@<TRIPOS>ATOM
      1 C1           3.3130     0.0390     0.0170 ca         1 CR4      -0.304900
      2 C2           3.0950    -1.3350     0.2280 ca         1 CR4      -0.105000
      3 C3           1.8160    -1.8470     0.3370 ca         1 CR4      -0.099000
      4 C4           0.7620    -0.9510     0.2200 ca         1 CR4       0.014000
      5 C5           0.9600     0.4330     0.0050 ca         1 CR4      -0.043000
      6 C6           2.2500     0.9350    -0.0920 ca         1 CR4      -0.041000
      7 C7           4.6860     0.5390    -0.0870 ce         1 CR4       0.530400
      8 N1           4.9800     1.7310     0.3810 nv         1 CR4      -0.592200
      9 N2           5.6100    -0.2070    -0.6480 nv         1 CR4      -0.576300
     10 N3          -0.5850    -1.0980     0.2620 na         1 CR4      -0.279900
     11 N4          -0.2410     1.0760    -0.0820 nc         1 CR4      -0.366600
     12 C8          -1.1490     0.1310     0.0780 cc         1 CR4       0.290500
     13 C9          -2.5840     0.2990     0.0660 cd         1 CR4      -0.322200
     14 C10         -3.1170     1.5770    -0.1430 cd         1 CR4      -0.056000
     15 C11         -4.4760     1.8040    -0.1680 cc         1 CR4      -0.325000
     16 C12         -5.3360     0.7120     0.0220 cc         1 CR4      -0.098000
     17 C13         -4.8450    -0.5550     0.2290 cd         1 CR4      -0.348200
     18 C14         -3.4430    -0.8410     0.2620 c          1 CR4       0.573500
     19 O6          -3.0100    -2.0210     0.4530 o          1 CR4      -0.751100
     20 HC2          3.9350    -2.0070     0.3410 ha         1 CR4       0.099000
     21 HC3          1.6530    -2.9020     0.5110 ha         1 CR4       0.134000
     22 HC6          2.4100     1.9890    -0.2810 ha         1 CR4       0.120000
     23 HH11         4.3150     2.2440     0.9360 hn         1 CR4       0.365250
     24 HH12         5.8970     2.1370     0.2760 hn         1 CR4       0.365250
     25 HH21         6.5800     0.0700    -0.6760 hn         1 CR4       0.365250
     26 HH22         5.3660    -1.0580    -1.1280 hn         1 CR4       0.365250
     27 HN3         -1.1930    -1.9090     0.4030 hn         1 CR4       0.428000
     28 H1          -2.4310     2.4040    -0.2880 ha         1 CR4       0.169000
     29 H2          -4.8690     2.7980    -0.3320 ha         1 CR4       0.164000
     30 HC4         -6.4090     0.8670     0.0070 ha         1 CR4       0.153000
     31 HC5         -5.5310    -1.3830     0.3710 ha         1 CR4       0.173000
@<TRIPOS>BOND
     1     1     2 ar  
     2     1     6 ar  
     3     1     7 1   
     4     2     3 ar  
     5     2    20 1   
     6     3     4 ar  
     7     3    21 1   
     8     4     5 ar  
     9     4    10 2   
    10     5     6 ar  
    11     5    11 2   
    12     6    22 1   
    13     7     8 2   
    14     7     9 1   
    15     8    23 1   
    16     8    24 1   
    17     9    25 1   
    18     9    26 1   
    19    10    12 1   
    20    10    27 1   
    21    11    12 1   
    22    12    13 2   
    23    13    14 1   
    24    13    18 1   
    25    14    15 2   
    26    14    28 1   
    27    15    16 1   
    28    15    29 1   
    29    16    17 2   
    30    16    30 1   
    31    17    18 1   
    32    17    31 1   
    33    18    19 2   
@<TRIPOS>SUBSTRUCTURE
     1 CR4         1 TEMP              0 ****  ****    0 ROOT
