@<TRIPOS>MOLECULE
CR4
   31    33     1     0     0
SMALL
No Charge or Current Charge


@<TRIPOS>ATOM
      1 C1           3.3530     0.0520     0.0170 ca         1 CR4      -0.304900
      2 C2           3.0920    -1.3300     0.2450 ca         1 CR4      -0.105000
      3 C3           1.7710    -1.8140     0.3430 ca         1 CR4      -0.099000
      4 C4           0.7260    -0.8950     0.2090 ca         1 CR4       0.014000
      5 C5           0.9580     0.4540    -0.0140 ca         1 CR4      -0.043000
      6 C6           2.2630     0.9540    -0.1140 ca         1 CR4      -0.041000
      7 C7           4.7530     0.5500    -0.0860 ce         1 CR4       0.530400
      8 N1           5.0550     1.8140     0.3350 nv         1 CR4      -0.592200
      9 N2           5.7220    -0.2630    -0.6020 nv         1 CR4      -0.576300
     10 N3          -0.6370    -1.1050     0.2620 na         1 CR4      -0.279900
     11 N4          -0.2500     1.1290    -0.1090 nc         1 CR4      -0.366600
     12 C8          -1.1870     0.1410     0.0660 cc         1 CR4       0.290500
     13 C9          -2.5770     0.2500     0.0660 cd         1 CR4      -0.322200
     14 C10         -3.0870     1.5870    -0.1460 cd         1 CR4      -0.056000
     15 C11         -4.4560     1.7720    -0.1590 cc         1 CR4      -0.325000
     16 C12         -5.3840     0.6960     0.0300 cc         1 CR4      -0.098000
     17 C13         -4.9180    -0.5820     0.2330 cd         1 CR4      -0.348200
     18 C14         -3.4890    -0.9130     0.2690 c          1 CR4       0.573500
     19 O6          -3.1230    -2.0710     0.4530 o          1 CR4      -0.751100
     20 HC2          3.9130    -2.0360     0.3600 ha         1 CR4       0.099000
     21 HC3          1.5720    -2.8690     0.5200 ha         1 CR4       0.134000
     22 HC6          2.4180     2.0140    -0.3020 ha         1 CR4       0.120000
     23 HH11         4.3670     2.2900     0.9030 hn         1 CR4       0.365250
     24 HH12         6.0260     2.0580     0.4710 hn         1 CR4       0.365250
     25 HH21         6.6010     0.1530    -0.8780 hn         1 CR4       0.365250
     26 HH22         5.4240    -1.1020    -1.0800 hn         1 CR4       0.365250
     27 HN3         -1.1640    -1.9610     0.4100 hn         1 CR4       0.428000
     28 H1          -2.4300     2.4420    -0.2950 ha         1 CR4       0.169000
     29 H2          -4.8600     2.7690    -0.3170 ha         1 CR4       0.164000
     30 HC4         -6.4520     0.9050     0.0100 ha         1 CR4       0.153000
     31 HC5         -5.5890    -1.4200     0.3790 ha         1 CR4       0.173000
@<TRIPOS>BOND
     1     1     2 ar  
     2     1     6 ar  
     3     1     7 1   
     4     2     3 ar  
     5     2    20 1   
     6     3     4 ar  
     7     3    21 1   
     8     4     5 ar  
     9     4    10 2   
    10     5     6 ar  
    11     5    11 2   
    12     6    22 1   
    13     7     8 2   
    14     7     9 1   
    15     8    23 1   
    16     8    24 1   
    17     9    25 1   
    18     9    26 1   
    19    10    12 1   
    20    10    27 1   
    21    11    12 1   
    22    12    13 2   
    23    13    14 1   
    24    13    18 1   
    25    14    15 2   
    26    14    28 1   
    27    15    16 1   
    28    15    29 1   
    29    16    17 2   
    30    16    30 1   
    31    17    18 1   
    32    17    31 1   
    33    18    19 2   
@<TRIPOS>SUBSTRUCTURE
     1 CR4         1 TEMP              0 ****  ****    0 ROOT
