@<TRIPOS>MOLECULE
CR5
   23    23     1     0     0
SMALL
No Charge or Current Charge


@<TRIPOS>ATOM
      1 N           -1.2540     1.0020    -1.4690 n8         1 CR5      -1.008200
      2 CA1         -0.3450     1.0980    -0.2750 c3         1 CR5       0.128800
      3 C1          -1.0290     1.6530     1.0320 c5         1 CR5       0.415400
      4 N2          -2.1030     0.7800     1.5100 ns         1 CR5      -0.507900
      5 N3          -0.0980     1.6830     2.2080 nh         1 CR5      -0.192700
      6 C2          -0.6040     0.8930     3.2200 ce         1 CR5       0.444600
      7 O2          -0.0030     0.6270     4.4170 oh         1 CR5      -0.515600
      8 CA2         -1.8810     0.3020     2.7700 c          1 CR5       0.459700
      9 CA3          1.2680     2.2800     2.1970 c3         1 CR5      -0.140400
     10 C            1.3020     3.8120     2.0990 c          1 CR5       0.724000
     11 O3           0.6270     4.3320     1.2210 o          1 CR5      -0.647000
     12 O4          -1.5670     2.9270     0.7600 oh         1 CR5      -0.600000
     13 O5          -2.6210    -0.4600     3.3770 o          1 CR5      -0.472000
     14 OXT          1.9420     4.4290     2.9350 o          1 CR5      -0.647000
     15 HN1         -1.7480     1.8990    -1.5710 hn         1 CR5       0.421500
     16 HN2A        -2.0150     0.3410    -1.2680 hn         1 CR5       0.421500
     17 HA11         0.0760     0.1050    -0.0600 h1         1 CR5       0.085700
     18 HA12         0.4960     1.7590    -0.5320 h1         1 CR5       0.085700
     19 HN2         -2.9600     0.5550     1.0200 hn         1 CR5       0.365500
     20 HO2         -0.6170     0.0160     4.8800 ho         1 CR5       0.537000
     21 HA31         1.8450     1.8890     1.3520 h1         1 CR5       0.074200
     22 HA32         1.8070     1.9990     3.1100 h1         1 CR5       0.074200
     23 HO4         -0.7960     3.5520     0.8380 ho         1 CR5       0.493000
@<TRIPOS>BOND
     1     1     2 1   
     2     1    15 1   
     3     1    16 1   
     4     2     3 1   
     5     2    17 1   
     6     2    18 1   
     7     3     4 1   
     8     3     5 1   
     9     3    12 1   
    10     4     8 1   
    11     4    19 1   
    12     5     6 2   
    13     5     9 1   
    14     6     7 1   
    15     6     8 1   
    16     7    20 1   
    17     8    13 2   
    18     9    10 1   
    19     9    21 1   
    20     9    22 1   
    21    10    11 1   
    22    10    14 1   
    23    12    23 1   
@<TRIPOS>SUBSTRUCTURE
     1 CR5         1 TEMP              0 ****  ****    0 ROOT
