@<TRIPOS>MOLECULE
CR5
   23    23     1     0     0
SMALL
bcc


@<TRIPOS>ATOM
      1 N           -1.4000     0.6680    -1.3450 n8         1 CR5      -0.897800
      2 CA1         -0.4560     0.8610    -0.2820 c3         1 CR5       0.128800
      3 C1          -0.9830     1.6450     0.9400 c5         1 CR5       0.362900
      4 N2          -2.0600     0.9540     1.6000 ns         1 CR5      -0.574900
      5 N3           0.0540     1.6330     2.0070 nh         1 CR5      -0.134100
      6 C2          -0.3670     1.0250     3.0560 ce         1 CR5       0.444600
      7 O2           0.3160     0.8330     4.1200 oh         1 CR5      -0.476600
      8 CA2         -1.7670     0.5200     2.8290 c          1 CR5       0.602200
      9 CA3          1.2320     2.4670     1.9500 c3         1 CR5      -0.169700
     10 C            1.0400     3.7710     2.7930 c          1 CR5       0.934600
     11 O3           1.9460     4.5990     2.6280 o          1 CR5      -0.752300
     12 O4          -1.3720     2.9240     0.6560 oh         1 CR5      -0.537800
     13 O5          -2.4010    -0.1180     3.6300 o          1 CR5      -0.547500
     14 OXT          0.0490     3.8130     3.5300 o          1 CR5      -0.752300
     15 HN1         -1.7460     1.5380    -1.7270 hn         1 CR5       0.366300
     16 HN2A        -2.1940     0.1110    -1.0610 hn         1 CR5       0.366300
     17 HA11        -0.1060    -0.1090     0.0730 h1         1 CR5       0.085700
     18 HA12         0.4190     1.3890    -0.6710 h1         1 CR5       0.085700
     19 HN2         -2.9350     0.7570     1.1340 hn         1 CR5       0.365500
     20 HO2         -0.1790     0.3150     4.7790 ho         1 CR5       0.498000
     21 HA31         1.4510     2.7040     0.9100 h1         1 CR5       0.074200
     22 HA32         2.0840     1.9060     2.3350 h1         1 CR5       0.074200
     23 HO4         -0.9030     3.2670    -0.1150 ho         1 CR5       0.454000
@<TRIPOS>BOND
     1     1     2 1   
     2     1    15 1   
     3     1    16 1   
     4     2     3 1   
     5     2    17 1   
     6     2    18 1   
     7     3     4 1   
     8     3     5 1   
     9     3    12 1   
    10     4     8 1   
    11     4    19 1   
    12     5     6 2   
    13     5     9 1   
    14     6     7 1   
    15     6     8 1   
    16     7    20 1   
    17     8    13 2   
    18     9    10 1   
    19     9    21 1   
    20     9    22 1   
    21    10    11 1   
    22    10    14 1   
    23    12    23 1   
@<TRIPOS>SUBSTRUCTURE
     1 CR5         1 TEMP              0 ****  ****    0 ROOT
