@<TRIPOS>MOLECULE
CR6
   34    34     1     0     0
SMALL
No Charge or Current Charge


@<TRIPOS>ATOM
      1 N1           0.3250     2.8950     0.9240 nt         1 CR6      -0.605000
      2 C2           1.1680     0.0130     0.6220 c6         1 CR6       0.156300
      3 O2           2.0190     0.7440     1.5350 oh         1 CR6      -0.686000
      4 C4           0.8580    -0.7600    -1.7900 c6         1 CR6       0.100300
      5 C5          -0.6320    -0.2860    -1.7050 c6         1 CR6       0.146300
      6 C6          -1.5940    -1.1630    -2.5760 c3         1 CR6       0.167600
      7 C1          -0.3450     0.4690     0.6220 c6         1 CR6       0.285400
      8 C3           1.7330     0.0940    -0.8240 c6         1 CR6       0.142300
      9 O3           3.0950    -0.3690    -0.8600 oh         1 CR6      -0.659000
     10 O4           1.3870    -0.6600    -3.1310 oh         1 CR6      -0.720000
     11 O5          -1.0980    -0.3390    -0.3250 os         1 CR6      -0.451000
     12 N2          -0.9230     0.1860     1.9550 ns         1 CR6      -0.504900
     13 C7          -1.2090    -1.0450     2.4990 c          1 CR6       0.616100
     14 O7          -0.9270    -2.1070     1.9630 o          1 CR6      -0.588100
     15 C8          -1.8910    -0.9850     3.8590 c3         1 CR6      -0.183100
     16 C9          -0.5410     2.0280     0.3430 c          1 CR6       0.563100
     17 O9          -1.4610     2.4880    -0.3180 o          1 CR6      -0.562100
     18 H1N1         0.2150     3.8880     0.7810 hn         1 CR6       0.323500
     19 H2N1         1.0980     2.5280     1.4680 hn         1 CR6       0.323500
     20 H21          1.1840    -1.0500     0.9020 h1         1 CR6       0.075700
     21 H1O2         2.9400     0.4870     1.2830 ho         1 CR6       0.518000
     22 H41          0.8990    -1.8070    -1.4490 h1         1 CR6       0.060700
     23 H51         -0.7010     0.7480    -2.0740 h1         1 CR6       0.064700
     24 H61         -1.2660    -1.1000    -3.6230 h1         1 CR6       0.031200
     25 H62         -1.4780    -2.2100    -2.2620 h1         1 CR6       0.031200
     26 H31          1.6880     1.1420    -1.1600 h1         1 CR6       0.074700
     27 H1O3         3.2750    -0.5460    -1.8120 ho         1 CR6       0.459000
     28 H1O4         1.1320    -1.4790    -3.6200 ho         1 CR6       0.509000
     29 H1N2        -1.1860     0.9830     2.5210 hn         1 CR6       0.328500
     30 H1O6        -3.5010    -1.4280    -2.9920 ho         1 CR6       0.507000
     31 H81         -2.0930    -1.9790     4.2740 hc         1 CR6       0.062367
     32 H82         -1.2780    -0.3820     4.5390 hc         1 CR6       0.062367
     33 H83         -2.8050    -0.3870     3.7750 hc         1 CR6       0.062367
     34 O6          -2.9770    -0.7700    -2.4780 oh         1 CR6      -0.714000
@<TRIPOS>BOND
     1     1    16 1   
     2     1    18 1   
     3     1    19 1   
     4     2     3 1   
     5     2     7 1   
     6     2     8 1   
     7     2    20 1   
     8     3    21 1   
     9     4     5 1   
    10     4     8 1   
    11     4    10 1   
    12     4    22 1   
    13     5     6 1   
    14     5    11 1   
    15     5    23 1   
    16     6    24 1   
    17     6    25 1   
    18     6    34 1   
    19     7    11 1   
    20     7    12 1   
    21     7    16 1   
    22     8     9 1   
    23     8    26 1   
    24     9    27 1   
    25    10    28 1   
    26    12    13 1   
    27    12    29 1   
    28    13    14 2   
    29    13    15 1   
    30    15    31 1   
    31    15    32 1   
    32    15    33 1   
    33    16    17 2   
    34    30    34 1   
@<TRIPOS>SUBSTRUCTURE
     1 CR6         1 TEMP              0 ****  ****    0 ROOT
