@<TRIPOS>MOLECULE
CR6
   34    34     1     0     0
SMALL
bcc


@<TRIPOS>ATOM
      1 N1          -1.4390     2.3750     0.3460 nt         1 CR6      -0.672000
      2 C2           1.3660    -0.1400     0.3760 c6         1 CR6       0.133100
      3 O2           2.2970     0.5170     1.1880 oh         1 CR6      -0.563800
      4 C4           0.6110    -0.7810    -1.9060 c6         1 CR6       0.077100
      5 C5          -0.7520    -0.1820    -1.5510 c6         1 CR6       0.123100
      6 C6          -1.8970    -0.9060    -2.2240 c3         1 CR6       0.144400
      7 C1          -0.0420     0.4250     0.6430 c6         1 CR6       0.262200
      8 C3           1.7070    -0.0820    -1.1090 c6         1 CR6       0.119100
      9 O3           2.9480    -0.7270    -1.2700 oh         1 CR6      -0.596800
     10 O4           0.9090    -0.6140    -3.2730 oh         1 CR6      -0.597800
     11 O5          -0.9730    -0.2670    -0.1510 os         1 CR6      -0.404600
     12 N2          -0.4360     0.2620     2.0180 ns         1 CR6      -0.571900
     13 C7          -0.4920    -0.9080     2.7060 c          1 CR6       0.683100
     14 O7          -0.2430    -1.9950     2.2180 o          1 CR6      -0.588100
     15 C8          -0.8710    -0.7390     4.1570 c3         1 CR6      -0.183100
     16 C9          -0.1680     1.9540     0.3620 c          1 CR6       0.630100
     17 O9           0.7910     2.6850     0.2090 o          1 CR6      -0.562100
     18 H1N1        -1.6430     3.3410     0.1450 hn         1 CR6       0.323500
     19 H2N1        -2.2130     1.7310     0.3450 hn         1 CR6       0.323500
     20 H21          1.3110    -1.2020     0.6410 h1         1 CR6       0.075700
     21 H1O2         3.0220    -0.0910     1.3560 ho         1 CR6       0.419000
     22 H41          0.6100    -1.8450    -1.6290 h1         1 CR6       0.060700
     23 H51         -0.7700     0.8680    -1.8850 h1         1 CR6       0.064700
     24 H61         -1.7040    -0.9270    -3.3030 h1         1 CR6       0.031200
     25 H62         -1.9170    -1.9500    -1.8790 h1         1 CR6       0.031200
     26 H31          1.7710     0.9640    -1.4420 h1         1 CR6       0.074700
     27 H1O3         3.1830    -0.6880    -2.2030 ho         1 CR6       0.420000
     28 H1O4         0.5740    -1.3690    -3.7650 ho         1 CR6       0.410000
     29 H1N2        -0.6830     1.0930     2.5300 hn         1 CR6       0.328500
     30 H1O6        -3.8000    -0.6390    -2.4400 ho         1 CR6       0.408000
     31 H81         -1.2200    -1.6840     4.5650 hc         1 CR6       0.062367
     32 H82          0.0080    -0.4260     4.7240 hc         1 CR6       0.062367
     33 H83         -1.6410     0.0170     4.3010 hc         1 CR6       0.062367
     34 O6          -3.0950    -0.2300    -1.9300 oh         1 CR6      -0.591800
@<TRIPOS>BOND
     1     1    16 1   
     2     1    18 1   
     3     1    19 1   
     4     2     3 1   
     5     2     7 1   
     6     2     8 1   
     7     2    20 1   
     8     3    21 1   
     9     4     5 1   
    10     4     8 1   
    11     4    10 1   
    12     4    22 1   
    13     5     6 1   
    14     5    11 1   
    15     5    23 1   
    16     6    24 1   
    17     6    25 1   
    18     6    34 1   
    19     7    11 1   
    20     7    12 1   
    21     7    16 1   
    22     8     9 1   
    23     8    26 1   
    24     9    27 1   
    25    10    28 1   
    26    12    13 1   
    27    12    29 1   
    28    13    14 2   
    29    13    15 1   
    30    15    31 1   
    31    15    32 1   
    32    15    33 1   
    33    16    17 2   
    34    30    34 1   
@<TRIPOS>SUBSTRUCTURE
     1 CR6         1 TEMP              0 ****  ****    0 ROOT
