@<TRIPOS>MOLECULE
CR7
   46    47     1     0     0
SMALL
bcc


@<TRIPOS>ATOM
      1 N1          -1.9530     0.6030     1.5360 n8         1 CR7      -0.882800
      2 CA1         -0.6340     0.9430     2.0570 c3         1 CR7       0.130200
      3 CB1         -0.2660     0.2960     3.3920 c3         1 CR7      -0.102400
      4 CG1         -1.2530     0.6460     4.4980 c3         1 CR7      -0.079400
      5 C1           0.3660     0.6200     0.9880 cc         1 CR7       0.526900
      6 N2           1.2500    -0.3150     1.0690 nd         1 CR7      -0.681300
      7 N3           0.3650     1.2880    -0.2180 n          1 CR7      -0.351300
      8 C2           1.3940     0.7920    -0.9780 c          1 CR7       0.677700
      9 O2           1.7320     1.1820    -2.0800 o          1 CR7      -0.596500
     10 CA2          1.9420    -0.2970    -0.1350 cd         1 CR7       0.039400
     11 CA3         -0.3560     2.4960    -0.5230 c3         1 CR7      -0.060000
     12 C3           0.2680     3.7580     0.1160 c          1 CR7       0.917600
     13 O3           1.2670     3.5950     0.8350 o          1 CR7      -0.826300
     14 CB2          2.9320    -1.1130    -0.5430 ce         1 CR7      -0.063200
     15 CG2          3.5450    -2.2320     0.1400 ca         1 CR7      -0.068800
     16 CD1          4.5500    -2.9430    -0.5270 ca         1 CR7      -0.073500
     17 CD2          3.1920    -2.6600     1.4300 ca         1 CR7      -0.073500
     18 CE1          5.1780    -4.0300     0.0510 ca         1 CR7      -0.206500
     19 CE2          3.8130    -3.7440     2.0160 ca         1 CR7      -0.206500
     20 CZ           4.8110    -4.4400     1.3310 ca         1 CR7       0.127100
     21 OH           5.3780    -5.4890     1.9470 oh         1 CR7      -0.502100
     22 CD          -0.8530     0.0670     5.8500 c3         1 CR7      -0.077400
     23 CE          -1.8560     0.3960     6.9450 c3         1 CR7       0.146800
     24 NZ          -1.4440    -0.1720     8.2210 n8         1 CR7      -0.882800
     25 O1          -0.3180     4.8210    -0.1610 o          1 CR7      -0.826300
     26 HN11        -2.6700     1.0370     2.1020 hn         1 CR7       0.336800
     27 HN12        -2.0990    -0.3980     1.5990 hn         1 CR7       0.336800
     28 HA1         -0.6130     2.0300     2.1910 h1         1 CR7       0.111700
     29 HB11        -0.2140    -0.7900     3.2680 hc         1 CR7       0.060200
     30 HB12         0.7380     0.6200     3.6820 hc         1 CR7       0.060200
     31 HG11        -1.3370     1.7350     4.5820 hc         1 CR7       0.033700
     32 HG12        -2.2510     0.2810     4.2360 hc         1 CR7       0.033700
     33 HA31        -1.3900     2.3780    -0.1970 h1         1 CR7       0.055700
     34 HA32        -0.3800     2.6090    -1.6080 h1         1 CR7       0.055700
     35 HB2          3.3190    -0.9090    -1.5370 ha         1 CR7       0.132000
     36 HD1          4.8440    -2.6390    -1.5240 ha         1 CR7       0.149500
     37 HD2          2.4200    -2.1350     1.9740 ha         1 CR7       0.149500
     38 HE1          5.9510    -4.5590    -0.4950 ha         1 CR7       0.128500
     39 HE2          3.5290    -4.0600     3.0120 ha         1 CR7       0.128500
     40 HOH          6.0420    -5.8990     1.3800 ho         1 CR7       0.417000
     41 HD1A        -0.7560    -1.0210     5.7630 hc         1 CR7       0.046700
     42 HD2A         0.1330     0.4440     6.1400 hc         1 CR7       0.046700
     43 HE1A        -2.8540     0.0670     6.6210 h1         1 CR7       0.024700
     44 HE2A        -1.9160     1.4820     7.0590 h1         1 CR7       0.024700
     45 HNZ1        -1.4860    -1.1830     8.1630 hn         1 CR7       0.329800
     46 HNZ2        -2.1150     0.0830     8.9350 hn         1 CR7       0.329800
@<TRIPOS>BOND
     1     1     2 1   
     2     1    26 1   
     3     1    27 1   
     4     2     3 1   
     5     2     5 1   
     6     2    28 1   
     7     3     4 1   
     8     3    29 1   
     9     3    30 1   
    10     4    22 1   
    11     4    31 1   
    12     4    32 1   
    13     5     6 2   
    14     5     7 1   
    15     6    10 1   
    16     7     8 1   
    17     7    11 1   
    18     8     9 2   
    19     8    10 1   
    20    10    14 2   
    21    11    12 1   
    22    11    33 1   
    23    11    34 1   
    24    12    13 1   
    25    12    25 1   
    26    14    15 1   
    27    14    35 1   
    28    15    16 ar  
    29    15    17 ar  
    30    16    18 ar  
    31    16    36 1   
    32    17    19 ar  
    33    17    37 1   
    34    18    20 ar  
    35    18    38 1   
    36    19    20 ar  
    37    19    39 1   
    38    20    21 1   
    39    21    40 1   
    40    22    23 1   
    41    22    41 1   
    42    22    42 1   
    43    23    24 1   
    44    23    43 1   
    45    23    44 1   
    46    24    45 1   
    47    24    46 1   
@<TRIPOS>SUBSTRUCTURE
     1 CR7         1 TEMP              0 ****  ****    0 ROOT
