@<TRIPOS>MOLECULE
CR7
   46    47     1     0     0
SMALL
No Charge or Current Charge


@<TRIPOS>ATOM
      1 N1          -2.0070    -0.4180     1.5540 n8         1 CR7      -0.993200
      2 CA1         -0.8730     0.5080     1.8880 c3         1 CR7       0.130200
      3 CB1         -0.4110     0.2690     3.3510 c3         1 CR7      -0.102400
      4 CG1         -1.4830     0.5810     4.4270 c3         1 CR7      -0.079400
      5 C1           0.3030     0.4450     0.8890 cc         1 CR7       0.526900
      6 N2           1.1580    -0.5920     0.8460 nd         1 CR7      -0.681300
      7 N3           0.5570     1.4200    -0.0680 n          1 CR7      -0.284300
      8 C2           1.6550     1.0670    -0.8110 c          1 CR7       0.535200
      9 O2           2.1810     1.6820    -1.7320 o          1 CR7      -0.521000
     10 CA2          2.0080    -0.2290    -0.1960 cd         1 CR7       0.039400
     11 CA3         -0.1920     2.6890    -0.2850 c3         1 CR7      -0.060000
     12 C3           0.2670     3.8550     0.6160 c          1 CR7       0.707000
     13 O3           0.3210     3.6660     1.8220 o          1 CR7      -0.721000
     14 CB2          3.0740    -1.0140    -0.5880 ce         1 CR7      -0.113200
     15 CG2          3.6660    -2.2450     0.0200 ca         1 CR7      -0.068800
     16 CD1          4.3490    -3.1560    -0.8110 ca         1 CR7      -0.055500
     17 CD2          3.5890    -2.5070     1.4050 ca         1 CR7      -0.055500
     18 CE1          4.9310    -4.3180    -0.2720 ca         1 CR7      -0.188500
     19 CE2          4.1720    -3.6690     1.9420 ca         1 CR7      -0.188500
     20 CZ           4.8390    -4.5740     1.1040 ca         1 CR7       0.127100
     21 OH           5.4010    -5.6960     1.6330 oh         1 CR7      -0.541100
     22 CD          -0.9570     0.4030     5.8700 c3         1 CR7      -0.077400
     23 CE          -2.0250     0.7150     6.9390 c3         1 CR7       0.146800
     24 NZ          -1.4950     0.5380     8.3030 n8         1 CR7      -0.993200
     25 O1           0.5920     4.9060     0.0820 o          1 CR7      -0.721000
     26 HN11        -2.6810    -0.4140     2.3280 hn         1 CR7       0.392000
     27 HN12        -1.6510    -1.3820     1.5460 hn         1 CR7       0.392000
     28 HA1         -1.2660     1.5330     1.8580 h1         1 CR7       0.111700
     29 HB11        -0.0710    -0.7680     3.4650 hc         1 CR7       0.060200
     30 HB12         0.4630     0.9040     3.5420 hc         1 CR7       0.060200
     31 HG11        -1.8330     1.6130     4.2990 hc         1 CR7       0.033700
     32 HG12        -2.3520    -0.0740     4.2870 hc         1 CR7       0.033700
     33 HA31        -1.2610     2.5230    -0.1090 h1         1 CR7       0.055700
     34 HA32        -0.0790     2.9990    -1.3310 h1         1 CR7       0.055700
     35 HB2          3.6110    -0.6430    -1.4620 ha         1 CR7       0.182000
     36 HD1          4.4250    -2.9660    -1.8800 ha         1 CR7       0.131500
     37 HD2          3.0930    -1.8080     2.0720 ha         1 CR7       0.131500
     38 HE1          5.4490    -5.0120    -0.9290 ha         1 CR7       0.110500
     39 HE2          4.1090    -3.8630     3.0090 ha         1 CR7       0.110500
     40 HOH          5.8200    -6.2030     0.9050 ho         1 CR7       0.456000
     41 HD1A        -0.6050    -0.6280     5.9990 hc         1 CR7       0.046700
     42 HD2A        -0.0920     1.0610     6.0210 hc         1 CR7       0.046700
     43 HE1A        -2.8870     0.0470     6.8080 h1         1 CR7       0.024700
     44 HE2A        -2.3680     1.7530     6.8280 h1         1 CR7       0.024700
     45 HNZ1        -1.2490    -0.4490     8.4400 hn         1 CR7       0.385000
     46 HNZ2        -2.2530     0.6940     8.9790 hn         1 CR7       0.385000
@<TRIPOS>BOND
     1     1     2 1   
     2     1    26 1   
     3     1    27 1   
     4     2     3 1   
     5     2     5 1   
     6     2    28 1   
     7     3     4 1   
     8     3    29 1   
     9     3    30 1   
    10     4    22 1   
    11     4    31 1   
    12     4    32 1   
    13     5     6 2   
    14     5     7 1   
    15     6    10 1   
    16     7     8 1   
    17     7    11 1   
    18     8     9 2   
    19     8    10 1   
    20    10    14 2   
    21    11    12 1   
    22    11    33 1   
    23    11    34 1   
    24    12    13 1   
    25    12    25 1   
    26    14    15 1   
    27    14    35 1   
    28    15    16 ar  
    29    15    17 ar  
    30    16    18 ar  
    31    16    36 1   
    32    17    19 ar  
    33    17    37 1   
    34    18    20 ar  
    35    18    38 1   
    36    19    20 ar  
    37    19    39 1   
    38    20    21 1   
    39    21    40 1   
    40    22    23 1   
    41    22    41 1   
    42    22    42 1   
    43    23    24 1   
    44    23    43 1   
    45    23    44 1   
    46    24    45 1   
    47    24    46 1   
@<TRIPOS>SUBSTRUCTURE
     1 CR7         1 TEMP              0 ****  ****    0 ROOT
