@<TRIPOS>MOLECULE
CR8
   41    43     1     0     0
SMALL
No Charge or Current Charge


@<TRIPOS>ATOM
      1 C1           2.3780    -2.9710    -1.8670 ca         1 CR8       0.574700
      2 C2           1.4990    -2.4630    -0.9000 ca         1 CR8      -0.328500
      3 C4           3.0350    -2.0740    -2.7200 ca         1 CR8      -0.328500
      4 C5           2.8160    -0.6920    -2.6170 ca         1 CR8       0.006000
      5 C6           1.2700    -1.0830    -0.7870 ca         1 CR8       0.006000
      6 C7           1.9230    -0.1860    -1.6540 ca         1 CR8      -0.275800
      7 C8           1.7240     1.2970    -1.5630 ce         1 CR8       0.053800
      8 C9           0.6330     2.0440    -1.1580 cd         1 CR8      -0.134600
      9 C10         -0.2390     2.3400     3.7360 cc         1 CR8       0.355400
     10 O3           2.5770    -4.1960    -1.9620 o          1 CR8      -0.773700
     11 N11         -1.2510     2.8750     4.4010 nd         1 CR8      -0.681000
     12 C12          0.6190     3.5170    -1.1360 c          1 CR8       0.545200
     13 N13         -0.6550     3.7600    -0.6820 n          1 CR8      -0.309300
     14 C14         -1.3170     2.5590    -0.4630 cc         1 CR8       0.364900
     15 N15         -0.5750     1.4790    -0.7520 nd         1 CR8      -0.588300
     16 C20         -2.9010     1.5790     1.3030 c3         1 CR8       0.020900
     17 C21         -2.0300     2.0270     2.4510 cc         1 CR8      -0.185300
     18 N22         -0.6720     1.8050     2.5490 na         1 CR8      -0.307500
     19 C23         -2.3690     2.6920     3.6050 cd         1 CR8       0.257900
     20 O25          1.4910     4.3210    -1.4430 o          1 CR8      -0.601000
     21 N           -3.7190     1.9820    -1.0290 n8         1 CR8      -1.022200
     22 C16         -2.7700     2.4600     0.0320 c3         1 CR8       0.161200
     23 C           -1.2580     5.6050     0.9830 c          1 CR8       0.709000
     24 C17         -1.1990     5.1320    -0.4900 c3         1 CR8      -0.044000
     25 OXT         -2.3550     5.7140     1.5100 o          1 CR8      -0.729500
     26 O19         -0.2070     5.8690     1.5500 o          1 CR8      -0.729500
     27 H2           0.9910    -3.1460    -0.2260 ha         1 CR8       0.078500
     28 H4           3.7220    -2.4520    -3.4710 ha         1 CR8       0.078500
     29 H5           3.3370    -0.0140    -3.2910 ha         1 CR8       0.088500
     30 H6           0.5970    -0.7210    -0.0140 ha         1 CR8       0.088500
     31 H8           2.5800     1.8880    -1.8910 ha         1 CR8       0.156000
     32 H10          0.7970     2.3010     4.0520 h5         1 CR8       0.030100
     33 H201        -3.9490     1.5780     1.6270 hc         1 CR8       0.042200
     34 H202        -2.6590     0.5390     1.0500 hc         1 CR8       0.042200
     35 H22         -0.0850     1.3400     1.8670 hn         1 CR8       0.331000
     36 H23         -3.3520     3.0390     3.9060 h4         1 CR8       0.090100
     37 H1          -3.3620     1.0910    -1.3950 hn         1 CR8       0.396500
     38 H2A         -3.6540     2.6090    -1.8410 hn         1 CR8       0.396500
     39 H16         -3.0930     3.4670     0.3270 h1         1 CR8       0.098700
     40 H171        -2.2100     5.1750    -0.9150 h1         1 CR8       0.030700
     41 H172        -0.5850     5.8490    -1.0500 h1         1 CR8       0.030700
@<TRIPOS>BOND
     1     1     2 ar  
     2     1     3 ar  
     3     1    10 1   
     4     2     5 ar  
     5     2    27 1   
     6     3     4 ar  
     7     3    28 1   
     8     4     6 ar  
     9     4    29 1   
    10     5     6 ar  
    11     5    30 1   
    12     6     7 1   
    13     7     8 2   
    14     7    31 1   
    15     8    12 1   
    16     8    15 1   
    17     9    11 2   
    18     9    18 1   
    19     9    32 1   
    20    11    19 1   
    21    12    13 1   
    22    12    20 2   
    23    13    14 1   
    24    13    24 1   
    25    14    15 2   
    26    14    22 1   
    27    16    17 1   
    28    16    22 1   
    29    16    33 1   
    30    16    34 1   
    31    17    18 1   
    32    17    19 2   
    33    18    35 1   
    34    19    36 1   
    35    21    22 1   
    36    21    37 1   
    37    21    38 1   
    38    22    39 1   
    39    23    24 1   
    40    23    25 1   
    41    23    26 1   
    42    24    40 1   
    43    24    41 1   
@<TRIPOS>SUBSTRUCTURE
     1 CR8         1 TEMP              0 ****  ****    0 ROOT
