@<TRIPOS>MOLECULE
CR8
   41    43     1     0     0
SMALL
bcc


@<TRIPOS>ATOM
      1 C1           2.7590    -2.5790    -1.3030 ca         1 CR8       0.574700
      2 C2           1.5710    -2.0630    -0.6660 ca         1 CR8      -0.346500
      3 C4           3.4610    -1.6220    -2.1210 ca         1 CR8      -0.346500
      4 C5           3.0220    -0.3360    -2.2730 ca         1 CR8      -0.012000
      5 C6           1.1430    -0.7740    -0.8300 ca         1 CR8      -0.012000
      6 C7           1.8500     0.1470    -1.6420 ca         1 CR8      -0.275800
      7 C8           1.4720     1.5010    -1.8460 ce         1 CR8       0.103800
      8 C9           0.3980     2.2030    -1.3830 cd         1 CR8      -0.134600
      9 C10         -0.4490     0.6160     3.9680 cc         1 CR8       0.355400
     10 O3           3.1490    -3.7590    -1.1520 o          1 CR8      -0.773700
     11 N11         -0.1510     1.8870     3.9130 nd         1 CR8      -0.681000
     12 C12          0.1780     3.6190    -1.6670 c          1 CR8       0.687700
     13 N13         -1.0080     3.8920    -1.0170 n          1 CR8      -0.376300
     14 C14         -1.4170     2.7410    -0.3730 cc         1 CR8       0.364900
     15 N15         -0.6350     1.7380    -0.5790 nd         1 CR8      -0.588300
     16 C20         -2.7450     1.4300     1.2880 c3         1 CR8       0.020900
     17 C21         -1.7130     1.4220     2.3600 cc         1 CR8      -0.199900
     18 N22         -1.3850     0.2910     3.0520 na         1 CR8      -0.307900
     19 C23         -0.9350     2.4020     2.9130 cd         1 CR8       0.323200
     20 O25          0.8360     4.4260    -2.3130 o          1 CR8      -0.676500
     21 N           -3.8760     2.6310    -0.4850 n8         1 CR8      -0.911800
     22 C16         -2.7080     2.6640     0.3910 c3         1 CR8       0.161200
     23 C           -1.2730     5.9610     0.3920 c          1 CR8       0.919600
     24 C17         -1.5840     5.2070    -0.9190 c3         1 CR8      -0.044000
     25 OXT         -1.8030     7.0840     0.4740 o          1 CR8      -0.834800
     26 O19         -0.5380     5.3990     1.2200 o          1 CR8      -0.834800
     27 H2           1.0050    -2.7360    -0.0300 ha         1 CR8       0.096500
     28 H4           4.3650    -1.9460    -2.6270 ha         1 CR8       0.096500
     29 H5           3.5870     0.3440    -2.9020 ha         1 CR8       0.106500
     30 H6           0.2450    -0.4410    -0.3250 ha         1 CR8       0.106500
     31 H8           2.1490     2.0810    -2.4690 ha         1 CR8       0.106000
     32 H10         -0.0250    -0.1120     4.6430 h5         1 CR8       0.030100
     33 H201        -3.7440     1.3840     1.7300 hc         1 CR8       0.042200
     34 H202        -2.6380     0.5350     0.6690 hc         1 CR8       0.042200
     35 H22         -1.7690    -0.6290     2.9020 hn         1 CR8       0.280700
     36 H23         -0.8780     3.4390     2.6170 h4         1 CR8       0.090100
     37 H1          -3.7650     1.8920    -1.1690 hn         1 CR8       0.341300
     38 H2A         -3.9630     3.4920    -1.0080 hn         1 CR8       0.341300
     39 H16         -2.7960     3.5540     1.0210 h1         1 CR8       0.098700
     40 H171        -2.6650     5.1590    -1.0640 h1         1 CR8       0.030700
     41 H172        -1.2010     5.7910    -1.7580 h1         1 CR8       0.030700
@<TRIPOS>BOND
     1     1     2 ar  
     2     1     3 ar  
     3     1    10 1   
     4     2     5 ar  
     5     2    27 1   
     6     3     4 ar  
     7     3    28 1   
     8     4     6 ar  
     9     4    29 1   
    10     5     6 ar  
    11     5    30 1   
    12     6     7 1   
    13     7     8 2   
    14     7    31 1   
    15     8    12 1   
    16     8    15 1   
    17     9    11 2   
    18     9    18 1   
    19     9    32 1   
    20    11    19 1   
    21    12    13 1   
    22    12    20 2   
    23    13    14 1   
    24    13    24 1   
    25    14    15 2   
    26    14    22 1   
    27    16    17 1   
    28    16    22 1   
    29    16    33 1   
    30    16    34 1   
    31    17    18 1   
    32    17    19 2   
    33    18    35 1   
    34    19    36 1   
    35    21    22 1   
    36    21    37 1   
    37    21    38 1   
    38    22    39 1   
    39    23    24 1   
    40    23    25 1   
    41    23    26 1   
    42    24    40 1   
    43    24    41 1   
@<TRIPOS>SUBSTRUCTURE
     1 CR8         1 TEMP              0 ****  ****    0 ROOT
