@<TRIPOS>MOLECULE
CR9
   51    54     1     0     0
SMALL
No Charge or Current Charge


@<TRIPOS>ATOM
      1 C1          -5.4510    -0.5670     0.2270 ca         1 CR9      -0.342900
      2 C2          -5.6370     0.8390     0.1390 ca         1 CR9       0.175000
      3 F2          -6.8830     1.3630     0.1430 f          1 CR9      -0.194000
      4 C3          -4.5400     1.7150     0.0250 ca         1 CR9      -0.157000
      5 C4          -3.2600     1.1580     0.0020 ca         1 CR9       0.020000
      6 C5          -3.0550    -0.2090     0.0840 ca         1 CR9      -0.032000
      7 C6          -4.1330    -1.0960     0.1970 ca         1 CR9      -0.042000
      8 C7          -6.6130    -1.4790     0.3470 ce         1 CR9       0.542400
      9 N1          -7.5510    -1.2360     1.3100 nv         1 CR9      -0.582200
     10 N2          -6.5850    -2.6760    -0.3110 nv         1 CR9      -0.566300
     11 N3          -2.0360     1.7880    -0.1010 na         1 CR9      -0.305900
     12 N4          -1.6980    -0.4800     0.0390 nc         1 CR9      -0.308600
     13 C8          -1.1100     0.7560    -0.0740 cc         1 CR9       0.311500
     14 C9           0.2520     1.0690    -0.1610 cd         1 CR9      -0.337200
     15 C10          0.6330     2.4690    -0.2750 cd         1 CR9      -0.128000
     16 C11          1.9710     2.7900    -0.3620 cc         1 CR9      -0.264000
     17 C12          3.0120     1.8060    -0.3440 cc         1 CR9      -0.238000
     18 C13          2.7030     0.4600    -0.2360 cd         1 CR9       0.001900
     19 C14          1.2840    -0.0160    -0.1360 c          1 CR9       0.595500
     20 O6           1.0160    -1.2120    -0.0400 o          1 CR9      -0.615100
     21 O5           3.7080    -0.4950    -0.2110 os         1 CR9      -0.325100
     22 C1B          5.9400    -1.4720    -0.5510 c6         1 CR9      -0.057700
     23 C2B          7.4670    -1.2000    -0.4440 c6         1 CR9      -0.073400
     24 C3B          7.8600    -0.6970     0.9660 c6         1 CR9      -0.075400
     25 C4B          7.0480     0.5590     1.3560 c6         1 CR9      -0.072400
     26 C5B          5.5280     0.2890     1.2590 c6         1 CR9      -0.105400
     27 C6B          5.1240    -0.2000    -0.1620 c6         1 CR9       0.177300
     28 C1A          5.5740    -1.9910    -1.9700 c3         1 CR9      -0.082100
     29 HC3         -4.6900     2.7890    -0.0450 ha         1 CR9       0.143000
     30 HC6         -3.9450    -2.1660     0.2720 ha         1 CR9       0.130000
     31 HH11        -7.5770    -0.3110     1.7160 hn         1 CR9       0.368250
     32 HH12        -8.3920    -1.7950     1.3310 hn         1 CR9       0.368250
     33 HH21        -7.4090    -3.2600    -0.2960 hn         1 CR9       0.368250
     34 HH22        -5.9410    -2.7760    -1.0840 hn         1 CR9       0.368250
     35 HN3         -1.8530     2.7780    -0.1770 hn         1 CR9       0.364000
     36 HC2         -0.0810     3.2870    -0.2970 ha         1 CR9       0.131000
     37 H7           2.2630     3.8350    -0.4490 ha         1 CR9       0.160000
     38 HC4          4.0320     2.1670    -0.4230 ha         1 CR9       0.163000
     39 H1B          5.6820    -2.2790     0.1490 hc         1 CR9       0.058700
     40 H2A          8.0290    -2.1150    -0.6740 hc         1 CR9       0.035700
     41 H2B          7.7670    -0.4540    -1.1950 hc         1 CR9       0.035700
     42 H3A          7.6890    -1.4930     1.7040 hc         1 CR9       0.035700
     43 H3B          8.9350    -0.4710     0.9950 hc         1 CR9       0.035700
     44 H4A          7.3080     0.8690     2.3770 hc         1 CR9       0.035200
     45 H4B          7.3190     1.3960     0.6970 hc         1 CR9       0.035200
     46 H5A          5.2410    -0.4680     2.0020 hc         1 CR9       0.052700
     47 H5B          4.9800     1.2020     1.5240 hc         1 CR9       0.052700
     48 H6B          5.3570     0.5750    -0.9050 h1         1 CR9       0.034700
     49 H1AA         6.1560    -2.8840    -2.2270 hc         1 CR9       0.036033
     50 H1AB         4.5140    -2.2640    -2.0380 hc         1 CR9       0.036033
     51 H1AC         5.7730    -1.2310    -2.7360 hc         1 CR9       0.036033
@<TRIPOS>BOND
     1     1     2 ar  
     2     1     7 ar  
     3     1     8 1   
     4     2     3 1   
     5     2     4 ar  
     6     4     5 ar  
     7     4    29 1   
     8     5     6 ar  
     9     5    11 2   
    10     6     7 ar  
    11     6    12 2   
    12     7    30 1   
    13     8     9 2   
    14     8    10 1   
    15     9    31 1   
    16     9    32 1   
    17    10    33 1   
    18    10    34 1   
    19    11    13 1   
    20    11    35 1   
    21    12    13 1   
    22    13    14 2   
    23    14    15 1   
    24    14    19 1   
    25    15    16 2   
    26    15    36 1   
    27    16    17 1   
    28    16    37 1   
    29    17    18 2   
    30    17    38 1   
    31    18    19 1   
    32    18    21 1   
    33    19    20 2   
    34    21    27 1   
    35    22    23 1   
    36    22    27 1   
    37    22    28 1   
    38    22    39 1   
    39    23    24 1   
    40    23    40 1   
    41    23    41 1   
    42    24    25 1   
    43    24    42 1   
    44    24    43 1   
    45    25    26 1   
    46    25    44 1   
    47    25    45 1   
    48    26    27 1   
    49    26    46 1   
    50    26    47 1   
    51    27    48 1   
    52    28    49 1   
    53    28    50 1   
    54    28    51 1   
@<TRIPOS>SUBSTRUCTURE
     1 CR9         1 TEMP              0 ****  ****    0 ROOT
