@<TRIPOS>MOLECULE
CR9
   51    54     1     0     0
SMALL
bcc


@<TRIPOS>ATOM
      1 C1          -5.3020    -0.5870     0.1500 ca         1 CR9      -0.342900
      2 C2          -5.5150     0.7340    -0.2660 ca         1 CR9       0.139900
      3 F2          -6.7690     1.1310    -0.5300 f          1 CR9      -0.158900
      4 C3          -4.4970     1.6410    -0.4570 ca         1 CR9      -0.175000
      5 C4          -3.2150     1.1740    -0.2030 ca         1 CR9       0.020000
      6 C5          -2.9490    -0.1460     0.2170 ca         1 CR9      -0.032000
      7 C6          -3.9970    -1.0320     0.3860 ca         1 CR9      -0.060000
      8 C7          -6.4120    -1.5320     0.3120 ce         1 CR9       0.542400
      9 N1          -7.5140    -1.1760     0.9270 nv         1 CR9      -0.481600
     10 N2          -6.2620    -2.7510    -0.1510 nv         1 CR9      -0.465700
     11 N3          -1.9970     1.7580    -0.2760 na         1 CR9      -0.255600
     12 N4          -1.6040    -0.3270     0.3890 nc         1 CR9      -0.308600
     13 C8          -1.0420     0.8220     0.0840 cc         1 CR9       0.311500
     14 C9           0.3620     1.1630     0.0960 cd         1 CR9      -0.337200
     15 C10          0.7380     2.5260     0.0590 cd         1 CR9      -0.078000
     16 C11          2.0510     2.9060     0.0280 cc         1 CR9      -0.214000
     17 C12          3.0610     1.9190     0.0340 cc         1 CR9      -0.188000
     18 C13          2.7360     0.5900     0.0810 cd         1 CR9       0.001900
     19 C14          1.3530     0.1220     0.1160 c          1 CR9       0.595500
     20 O6           1.1090    -1.1030     0.1390 o          1 CR9      -0.615100
     21 O5           3.6230    -0.4330     0.0850 os         1 CR9      -0.301900
     22 C1B          5.6710    -1.4540    -0.5530 c6         1 CR9      -0.057700
     23 C2B          7.1810    -1.2310    -0.6650 c6         1 CR9      -0.073400
     24 C3B          7.8050    -0.7870     0.6520 c6         1 CR9      -0.075400
     25 C4B          7.1160     0.4620     1.1900 c6         1 CR9      -0.072400
     26 C5B          5.6130     0.2360     1.3170 c6         1 CR9      -0.105400
     27 C6B          5.0120    -0.1800    -0.0230 c6         1 CR9       0.154100
     28 C1A          5.0860    -1.8870    -1.8920 c3         1 CR9      -0.082100
     29 HC3         -4.7040     2.6470    -0.7950 ha         1 CR9       0.161000
     30 HC6         -3.8100    -2.0460     0.7190 ha         1 CR9       0.148000
     31 HH11        -7.5850    -0.2910     1.4010 hn         1 CR9       0.317950
     32 HH12        -8.3040    -1.7980     1.0090 hn         1 CR9       0.317950
     33 HH21        -6.9440    -3.4760     0.0120 hn         1 CR9       0.317950
     34 HH22        -5.4710    -2.9880    -0.7270 hn         1 CR9       0.317950
     35 HN3         -1.8200     2.6910    -0.6110 hn         1 CR9       0.313700
     36 HC2         -0.0160     3.3030     0.0880 ha         1 CR9       0.081000
     37 H7           2.3230     3.9530     0.0150 ha         1 CR9       0.110000
     38 HC4          4.0940     2.2420     0.0090 ha         1 CR9       0.113000
     39 H1B          5.5010    -2.2510     0.1830 hc         1 CR9       0.058700
     40 H2A          7.6560    -2.1510    -1.0160 hc         1 CR9       0.035700
     41 H2B          7.3720    -0.4730    -1.4350 hc         1 CR9       0.035700
     42 H3A          7.7100    -1.5940     1.3860 hc         1 CR9       0.035700
     43 H3B          8.8750    -0.6070     0.5220 hc         1 CR9       0.035700
     44 H4A          7.5330     0.7440     2.1590 hc         1 CR9       0.035200
     45 H4B          7.3040     1.3030     0.5130 hc         1 CR9       0.035200
     46 H5A          5.4220    -0.5570     2.0500 hc         1 CR9       0.052700
     47 H5B          5.1240     1.1370     1.6940 hc         1 CR9       0.052700
     48 H6B          5.1920     0.6160    -0.7630 h1         1 CR9       0.034700
     49 H1AA         5.6010    -2.7730    -2.2650 hc         1 CR9       0.036033
     50 H1AB         4.0250    -2.1240    -1.8180 hc         1 CR9       0.036033
     51 H1AC         5.2030    -1.0980    -2.6390 hc         1 CR9       0.036033
@<TRIPOS>BOND
     1     1     2 ar  
     2     1     7 ar  
     3     1     8 1   
     4     2     3 1   
     5     2     4 ar  
     6     4     5 ar  
     7     4    29 1   
     8     5     6 ar  
     9     5    11 2   
    10     6     7 ar  
    11     6    12 2   
    12     7    30 1   
    13     8     9 2   
    14     8    10 1   
    15     9    31 1   
    16     9    32 1   
    17    10    33 1   
    18    10    34 1   
    19    11    13 1   
    20    11    35 1   
    21    12    13 1   
    22    13    14 2   
    23    14    15 1   
    24    14    19 1   
    25    15    16 2   
    26    15    36 1   
    27    16    17 1   
    28    16    37 1   
    29    17    18 2   
    30    17    38 1   
    31    18    19 1   
    32    18    21 1   
    33    19    20 2   
    34    21    27 1   
    35    22    23 1   
    36    22    27 1   
    37    22    28 1   
    38    22    39 1   
    39    23    24 1   
    40    23    40 1   
    41    23    41 1   
    42    24    25 1   
    43    24    42 1   
    44    24    43 1   
    45    25    26 1   
    46    25    44 1   
    47    25    45 1   
    48    26    27 1   
    49    26    46 1   
    50    26    47 1   
    51    27    48 1   
    52    28    49 1   
    53    28    50 1   
    54    28    51 1   
@<TRIPOS>SUBSTRUCTURE
     1 CR9         1 TEMP              0 ****  ****    0 ROOT
