@<TRIPOS>MOLECULE
CRA
   35    35     1     0     0
SMALL
bcc


@<TRIPOS>ATOM
      1 N1          -1.1900     2.5340    -0.2070 nt         1 CRA      -0.673000
      2 C2           1.4250    -0.1640    -0.0020 c6         1 CRA       0.134100
      3 O2           2.4660     0.4990     0.6540 oh         1 CRA      -0.562800
      4 C4           0.4390    -1.0140    -2.1220 c6         1 CRA       0.078100
      5 C5          -0.8550    -0.2920    -1.7340 c6         1 CRA       0.124100
      6 C6          -2.0890    -1.0370    -2.1910 c3         1 CRA       0.145400
      7 C1           0.0940     0.5480     0.2940 c6         1 CRA       0.280200
      8 C3           1.6380    -0.3040    -1.5060 c6         1 CRA       0.114100
      9 O3           2.8200    -1.0480    -1.6830 oh         1 CRA      -0.598800
     10 O4           0.6200    -1.0220    -3.5200 oh         1 CRA      -0.596800
     11 O5          -0.9490    -0.1690    -0.3220 os         1 CRA      -0.414600
     12 N2          -0.1860     0.6160     1.7000 ns         1 CRA      -0.557900
     13 C7          -0.2420    -0.4480     2.5410 c          1 CRA       0.768100
     14 O7          -0.0620    -1.6070     2.2450 o          1 CRA      -0.581000
     15 C8          -0.6160    -1.0260     4.7890 c3         1 CRA       0.148700
     16 O8          -0.5340    -0.0300     3.7720 os         1 CRA      -0.434900
     17 C9           0.0520     2.0320    -0.1880 c          1 CRA       0.633100
     18 O9           1.0470     2.6690    -0.4720 o          1 CRA      -0.558100
     19 H1N1        -2.0030     1.9530    -0.0830 hn         1 CRA       0.325000
     20 H2N1        -1.3420     3.4810    -0.5160 hn         1 CRA       0.325000
     21 H21          1.3100    -1.1810     0.3890 h1         1 CRA       0.075700
     22 H1O2         3.2140    -0.1030     0.7060 ho         1 CRA       0.422000
     23 H41          0.4030    -2.0380    -1.7240 h1         1 CRA       0.060700
     24 H51         -0.8540     0.7010    -2.2110 h1         1 CRA       0.065700
     25 H61         -1.9960    -1.2360    -3.2650 h1         1 CRA       0.031200
     26 H62         -2.1250    -2.0110    -1.6830 h1         1 CRA       0.031200
     27 H31          1.7370     0.6880    -1.9690 h1         1 CRA       0.074700
     28 H1O3         3.0180    -1.0780    -2.6250 ho         1 CRA       0.422000
     29 H1O4         0.2130    -1.8120    -3.8880 ho         1 CRA       0.411000
     30 H1N2        -0.4270     1.5130     2.0940 hn         1 CRA       0.344500
     31 H1O6        -4.0020    -0.7540    -2.1660 ho         1 CRA       0.410000
     32 H81         -0.8240    -0.4900     5.7110 h1         1 CRA       0.048700
     33 H82         -1.4230    -1.7320     4.5960 h1         1 CRA       0.048700
     34 H83          0.3220    -1.5700     4.8950 h1         1 CRA       0.048700
     35 O6          -3.2230    -0.2540    -1.9080 oh         1 CRA      -0.592800
@<TRIPOS>BOND
     1     1    17 1   
     2     1    19 1   
     3     1    20 1   
     4     2     3 1   
     5     2     7 1   
     6     2     8 1   
     7     2    21 1   
     8     3    22 1   
     9     4     5 1   
    10     4     8 1   
    11     4    10 1   
    12     4    23 1   
    13     5     6 1   
    14     5    11 1   
    15     5    24 1   
    16     6    25 1   
    17     6    26 1   
    18     6    35 1   
    19     7    11 1   
    20     7    12 1   
    21     7    17 1   
    22     8     9 1   
    23     8    27 1   
    24     9    28 1   
    25    10    29 1   
    26    12    13 1   
    27    12    30 1   
    28    13    14 2   
    29    13    16 1   
    30    15    16 1   
    31    15    32 1   
    32    15    33 1   
    33    15    34 1   
    34    17    18 2   
    35    31    35 1   
@<TRIPOS>SUBSTRUCTURE
     1 CRA         1 TEMP              0 ****  ****    0 ROOT
