@<TRIPOS>MOLECULE
CRA
   35    35     1     0     0
SMALL
No Charge or Current Charge


@<TRIPOS>ATOM
      1 N1           0.5600     3.0400     0.1550 nt         1 CRA      -0.606000
      2 C2           1.3130     0.1150     0.1780 c6         1 CRA       0.157300
      3 O2           2.2840     0.9410     0.8620 oh         1 CRA      -0.685000
      4 C4           0.6960    -0.9900    -2.0380 c6         1 CRA       0.101300
      5 C5          -0.7640    -0.4560    -1.8480 c6         1 CRA       0.147300
      6 C6          -1.8400    -1.4170    -2.4590 c3         1 CRA       0.168600
      7 C1          -0.1800     0.6190     0.2910 c6         1 CRA       0.303400
      8 C3           1.6970    -0.0360    -1.3210 c6         1 CRA       0.137300
      9 O3           3.0370    -0.5470    -1.4480 oh         1 CRA      -0.661000
     10 O4           1.0590    -1.1030    -3.4330 oh         1 CRA      -0.719000
     11 O5          -1.0570    -0.2940    -0.4300 os         1 CRA      -0.461000
     12 N2          -0.5910     0.5470     1.7070 ns         1 CRA      -0.490900
     13 C7          -0.8540    -0.5750     2.4360 c          1 CRA       0.652100
     14 O7          -0.6810    -1.7280     2.0720 o          1 CRA      -0.532000
     15 C8          -1.5440    -1.2220     4.6400 c3         1 CRA       0.171900
     16 O8          -1.2540    -0.1900     3.6800 os         1 CRA      -0.458100
     17 C9          -0.3850     2.1280    -0.1870 c          1 CRA       0.566100
     18 O9          -1.3720     2.5190    -0.7940 o          1 CRA      -0.558100
     19 H1N1         1.3880     2.7300     0.6500 hn         1 CRA       0.325000
     20 H2N1         0.4480     4.0050    -0.1170 hn         1 CRA       0.325000
     21 H21          1.3440    -0.8960     0.6110 h1         1 CRA       0.075700
     22 H1O2         3.1610     0.6180     0.5400 ho         1 CRA       0.521000
     23 H41          0.7610    -1.9770    -1.5540 h1         1 CRA       0.060700
     24 H51         -0.8600     0.5150    -2.3540 h1         1 CRA       0.065700
     25 H61         -1.6430    -1.5170    -3.5350 h1         1 CRA       0.031200
     26 H62         -1.7060    -2.4100    -2.0100 h1         1 CRA       0.031200
     27 H31          1.6300     0.9520    -1.8010 h1         1 CRA       0.074700
     28 H1O3         3.0980    -0.8650    -2.3790 ho         1 CRA       0.461000
     29 H1O4         0.7350    -1.9760    -3.7610 ho         1 CRA       0.510000
     30 H1N2        -0.7500     1.4150     2.1980 hn         1 CRA       0.344500
     31 H1O6        -3.7890    -1.6720    -2.6000 ho         1 CRA       0.509000
     32 H81         -1.8570    -0.7790     5.5940 h1         1 CRA       0.048700
     33 H82         -2.3550    -1.8710     4.2850 h1         1 CRA       0.048700
     34 H83         -0.6580    -1.8430     4.8280 h1         1 CRA       0.048700
     35 O6          -3.1940    -0.9640    -2.2570 oh         1 CRA      -0.715000
@<TRIPOS>BOND
     1     1    17 1   
     2     1    19 1   
     3     1    20 1   
     4     2     3 1   
     5     2     7 1   
     6     2     8 1   
     7     2    21 1   
     8     3    22 1   
     9     4     5 1   
    10     4     8 1   
    11     4    10 1   
    12     4    23 1   
    13     5     6 1   
    14     5    11 1   
    15     5    24 1   
    16     6    25 1   
    17     6    26 1   
    18     6    35 1   
    19     7    11 1   
    20     7    12 1   
    21     7    17 1   
    22     8     9 1   
    23     8    27 1   
    24     9    28 1   
    25    10    29 1   
    26    12    13 1   
    27    12    30 1   
    28    13    14 2   
    29    13    16 1   
    30    15    16 1   
    31    15    32 1   
    32    15    33 1   
    33    15    34 1   
    34    17    18 2   
    35    31    35 1   
@<TRIPOS>SUBSTRUCTURE
     1 CRA         1 TEMP              0 ****  ****    0 ROOT
