@<TRIPOS>MOLECULE
CRB
   29    29     1     0     0
SMALL
No Charge or Current Charge


@<TRIPOS>ATOM
      1 C1          -1.9330    -0.2370     2.6240 c          1 CRB       0.704000
      2 O11         -2.8380    -0.7860     2.0080 o          1 CRB      -0.747500
      3 O12         -2.1730     0.3630     3.6660 o          1 CRB      -0.747500
      4 C2          -0.6590     0.2710     1.8060 c6         1 CRB       0.046000
      5 O2          -0.7080     1.7170     1.6600 oh         1 CRB      -0.701000
      6 C3           0.6220    -0.1210     2.6080 c6         1 CRB      -0.081400
      7 C4           1.9290     0.2560     1.8670 c6         1 CRB       0.115300
      8 O4           3.0700    -0.1150     2.6660 oh         1 CRB      -0.711000
      9 C5           1.9910    -0.4320     0.4690 c6         1 CRB       0.173300
     10 O5           3.2210    -0.0500    -0.1670 oh         1 CRB      -0.649000
     11 C6           0.7400    -0.0660    -0.3990 c6         1 CRB      -0.005700
     12 C7           0.7580    -0.7790    -1.8000 c3         1 CRB      -0.385400
     13 C8          -0.5660    -0.4000     0.3910 c6         1 CRB      -0.073400
     14 P1          -0.4460    -0.2340    -3.0940 p5         1 CRB       1.310500
     15 O91         -0.5520     1.2530    -3.0740 o          1 CRB      -0.945500
     16 O92          0.0630    -0.6880    -4.4210 o          1 CRB      -0.945500
     17 O93         -1.7730    -0.8580    -2.8240 o          1 CRB      -0.945500
     18 HO2         -1.2040     2.0350     2.4500 ho         1 CRB       0.459000
     19 H31          0.6110    -1.2020     2.8050 hc         1 CRB       0.020200
     20 H32          0.6080     0.3680     3.5920 hc         1 CRB       0.020200
     21 H4           1.9330     1.3460     1.7130 h1         1 CRB       0.046700
     22 HO4          2.9370     0.2920     3.5500 ho         1 CRB       0.404000
     23 H5           1.9900    -1.5210     0.6260 h1         1 CRB       0.009700
     24 HO5          3.8630    -0.0080     0.5750 ho         1 CRB       0.394000
     25 H6           0.7660     1.0150    -0.5950 hc         1 CRB       0.079700
     26 H71          1.7380    -0.6420    -2.2690 hc         1 CRB       0.003700
     27 H72          0.6340    -1.8600    -1.6720 hc         1 CRB       0.003700
     28 H81         -0.6450    -1.4900     0.5030 hc         1 CRB       0.074200
     29 H82         -1.4380    -0.0940    -0.2000 hc         1 CRB       0.074200
@<TRIPOS>BOND
     1     1     2 1   
     2     1     3 1   
     3     1     4 1   
     4     4     5 1   
     5     4     6 1   
     6     4    13 1   
     7     5    18 1   
     8     6     7 1   
     9     6    19 1   
    10     6    20 1   
    11     7     8 1   
    12     7     9 1   
    13     7    21 1   
    14     8    22 1   
    15     9    10 1   
    16     9    11 1   
    17     9    23 1   
    18    10    24 1   
    19    11    12 1   
    20    11    13 1   
    21    11    25 1   
    22    12    14 1   
    23    12    26 1   
    24    12    27 1   
    25    13    28 1   
    26    13    29 1   
    27    14    15 1   
    28    14    16 1   
    29    14    17 1   
@<TRIPOS>SUBSTRUCTURE
     1 CRB         1 TEMP              0 ****  ****    0 ROOT
