@<TRIPOS>MOLECULE
CRB
   29    29     1     0     0
SMALL
abcg2


@<TRIPOS>ATOM
      1 C1          -1.9120    -0.2420     2.5520 c          1 CRB       0.704000
      2 O11         -2.0410    -1.4520     2.7920 o          1 CRB      -0.747500
      3 O12         -2.7140     0.6750     2.8520 o          1 CRB      -0.747500
      4 C2          -0.6380     0.2290     1.8050 c6         1 CRB       0.046000
      5 O2          -0.7100     1.6340     1.6710 oh         1 CRB      -0.701000
      6 C3           0.6100    -0.1490     2.6070 c6         1 CRB      -0.081400
      7 C4           1.8780     0.2310     1.8590 c6         1 CRB       0.115300
      8 O4           3.0460    -0.1720     2.5610 oh         1 CRB      -0.711000
      9 C5           1.9280    -0.4390     0.4910 c6         1 CRB       0.173300
     10 O5           3.1060    -0.0610    -0.1950 oh         1 CRB      -0.649000
     11 C6           0.7070    -0.0740    -0.3520 c6         1 CRB      -0.005700
     12 C7           0.7190    -0.7490    -1.7240 c3         1 CRB      -0.385400
     13 C8          -0.5620    -0.4280     0.4250 c6         1 CRB      -0.073400
     14 P1          -0.3840     0.0160    -3.0180 p5         1 CRB       1.310500
     15 O91          0.0420     1.4920    -3.0760 o          1 CRB      -0.945500
     16 O92         -0.0510    -0.7680    -4.2990 o          1 CRB      -0.945500
     17 O93         -1.8400    -0.1790    -2.5620 o          1 CRB      -0.945500
     18 HO2         -1.5690     1.8270     2.0970 ho         1 CRB       0.459000
     19 H31          0.6100    -1.2270     2.7920 hc         1 CRB       0.020200
     20 H32          0.5920     0.3440     3.5860 hc         1 CRB       0.020200
     21 H4           1.8930     1.3190     1.7040 h1         1 CRB       0.046700
     22 HO4          3.1760     0.4260     3.3030 ho         1 CRB       0.404000
     23 H5           1.9160    -1.5320     0.6540 h1         1 CRB       0.009700
     24 HO5          3.8410    -0.1900     0.4130 ho         1 CRB       0.394000
     25 H6           0.7250     1.0100    -0.5140 hc         1 CRB       0.079700
     26 H71          1.7340    -0.7270    -2.1300 hc         1 CRB       0.003700
     27 H72          0.4700    -1.8110    -1.6000 hc         1 CRB       0.003700
     28 H81         -0.6080    -1.5150     0.5520 hc         1 CRB       0.074200
     29 H82         -1.4260    -0.1520    -0.1820 hc         1 CRB       0.074200
@<TRIPOS>BOND
     1     1     2 1   
     2     1     3 1   
     3     1     4 1   
     4     4     5 1   
     5     4     6 1   
     6     4    13 1   
     7     5    18 1   
     8     6     7 1   
     9     6    19 1   
    10     6    20 1   
    11     7     8 1   
    12     7     9 1   
    13     7    21 1   
    14     8    22 1   
    15     9    10 1   
    16     9    11 1   
    17     9    23 1   
    18    10    24 1   
    19    11    12 1   
    20    11    13 1   
    21    11    25 1   
    22    12    14 1   
    23    12    26 1   
    24    12    27 1   
    25    13    28 1   
    26    13    29 1   
    27    14    15 1   
    28    14    16 1   
    29    14    17 1   
@<TRIPOS>SUBSTRUCTURE
     1 CRB         1 TEMP              0 ****  ****    0 ROOT
