@<TRIPOS>MOLECULE
CRC
   31    30     1     0     0
SMALL
No Charge or Current Charge


@<TRIPOS>ATOM
      1 O1           0.3300     1.1160    -5.1690 o          1 CRC      -0.744000
      2 C1           0.1300     0.0070    -4.6970 c          1 CRC       0.717000
      3 O2           0.6040    -1.0200    -5.1590 o          1 CRC      -0.744000
      4 C2          -0.7160    -0.0950    -3.4150 c3         1 CRC      -0.204400
      5 C3           0.1900     0.0260    -2.1650 c3         1 CRC      -0.053400
      6 C4          -0.5920    -0.0680    -0.8350 c3         1 CRC      -0.079400
      7 C5           0.3140     0.0540     0.4090 c3         1 CRC      -0.075400
      8 C6          -0.4670    -0.0390     1.7380 c3         1 CRC      -0.075400
      9 C7           0.4390     0.0830     2.9830 c3         1 CRC      -0.075400
     10 C8          -0.3430    -0.0110     4.3120 c3         1 CRC      -0.075400
     11 C9           0.5630     0.1110     5.5560 c3         1 CRC      -0.075400
     12 C10         -0.2170     0.0180     6.8820 c3         1 CRC      -0.087100
     13 H21         -1.1910    -1.0820    -3.3460 hc         1 CRC       0.014200
     14 H22         -1.4250     0.7400    -3.3540 hc         1 CRC       0.014200
     15 H31          0.7260     0.9830    -2.2000 hc         1 CRC       0.037700
     16 H32          0.9500    -0.7650    -2.1920 hc         1 CRC       0.037700
     17 H41         -1.1260    -1.0250    -0.7980 hc         1 CRC       0.023700
     18 H42         -1.3500     0.7250    -0.8070 hc         1 CRC       0.023700
     19 H51          0.8490     1.0120     0.3730 hc         1 CRC       0.033700
     20 H52          1.0730    -0.7380     0.3820 hc         1 CRC       0.033700
     21 H61         -1.0020    -0.9970     1.7750 hc         1 CRC       0.031700
     22 H62         -1.2260     0.7520     1.7660 hc         1 CRC       0.031700
     23 H71          0.9730     1.0400     2.9460 hc         1 CRC       0.034700
     24 H72          1.1980    -0.7090     2.9550 hc         1 CRC       0.034700
     25 H81         -0.8770    -0.9690     4.3480 hc         1 CRC       0.034700
     26 H82         -1.1020     0.7810     4.3400 hc         1 CRC       0.034700
     27 H91          1.0970     1.0690     5.5240 hc         1 CRC       0.035200
     28 H92          1.3220    -0.6800     5.5330 hc         1 CRC       0.035200
     29 H101         0.4670     0.1090     7.7340 hc         1 CRC       0.026700
     30 H102        -0.9620     0.8190     6.9510 hc         1 CRC       0.026700
     31 H103        -0.7350    -0.9460     6.9600 hc         1 CRC       0.026700
@<TRIPOS>BOND
     1     1     2 1   
     2     2     3 1   
     3     2     4 1   
     4     4     5 1   
     5     4    13 1   
     6     4    14 1   
     7     5     6 1   
     8     5    15 1   
     9     5    16 1   
    10     6     7 1   
    11     6    17 1   
    12     6    18 1   
    13     7     8 1   
    14     7    19 1   
    15     7    20 1   
    16     8     9 1   
    17     8    21 1   
    18     8    22 1   
    19     9    10 1   
    20     9    23 1   
    21     9    24 1   
    22    10    11 1   
    23    10    25 1   
    24    10    26 1   
    25    11    12 1   
    26    11    27 1   
    27    11    28 1   
    28    12    29 1   
    29    12    30 1   
    30    12    31 1   
@<TRIPOS>SUBSTRUCTURE
     1 CRC         1 TEMP              0 ****  ****    0 ROOT
