@<TRIPOS>MOLECULE
CRC
   31    30     1     0     0
SMALL
abcg2


@<TRIPOS>ATOM
      1 O1          -0.7190     0.0600    -5.6980 o          1 CRC      -0.744000
      2 C1           0.0350    -0.0050    -4.7040 c          1 CRC       0.717000
      3 O2           1.2780    -0.0920    -4.7280 o          1 CRC      -0.744000
      4 C2          -0.6610     0.0210    -3.3310 c3         1 CRC      -0.204400
      5 C3           0.2490     0.0110    -2.1130 c3         1 CRC      -0.053400
      6 C4          -0.5280     0.0210    -0.8020 c3         1 CRC      -0.079400
      7 C5           0.3640     0.0130     0.4340 c3         1 CRC      -0.075400
      8 C6          -0.4210     0.0130     1.7390 c3         1 CRC      -0.075400
      9 C7           0.4630     0.0070     2.9810 c3         1 CRC      -0.075400
     10 C8          -0.3310     0.0080     4.2810 c3         1 CRC      -0.075400
     11 C9           0.5450     0.0030     5.5280 c3         1 CRC      -0.075400
     12 C10         -0.2670     0.0090     6.8160 c3         1 CRC      -0.087100
     13 H21         -1.3440    -0.8360    -3.2830 hc         1 CRC       0.014200
     14 H22         -1.3140     0.9000    -3.2950 hc         1 CRC       0.014200
     15 H31          0.9180     0.8770    -2.1420 hc         1 CRC       0.037700
     16 H32          0.8980    -0.8700    -2.1410 hc         1 CRC       0.037700
     17 H41         -1.1980    -0.8460    -0.7680 hc         1 CRC       0.023700
     18 H42         -1.1800     0.9020    -0.7700 hc         1 CRC       0.023700
     19 H51          1.0280     0.8850     0.4080 hc         1 CRC       0.033700
     20 H52          1.0180    -0.8660     0.4030 hc         1 CRC       0.033700
     21 H61         -1.0830    -0.8610     1.7630 hc         1 CRC       0.031700
     22 H62         -1.0790     0.8890     1.7670 hc         1 CRC       0.031700
     23 H71          1.1260     0.8790     2.9580 hc         1 CRC       0.034700
     24 H72          1.1180    -0.8710     2.9540 hc         1 CRC       0.034700
     25 H81         -0.9940    -0.8640     4.3030 hc         1 CRC       0.034700
     26 H82         -0.9880     0.8860     4.3050 hc         1 CRC       0.034700
     27 H91          1.2100     0.8720     5.5070 hc         1 CRC       0.035200
     28 H92          1.1960    -0.8760     5.5080 hc         1 CRC       0.035200
     29 H101         0.3740     0.0070     7.6990 hc         1 CRC       0.026700
     30 H102        -0.9050     0.8930     6.8740 hc         1 CRC       0.026700
     31 H103        -0.9140    -0.8680     6.8760 hc         1 CRC       0.026700
@<TRIPOS>BOND
     1     1     2 1   
     2     2     3 1   
     3     2     4 1   
     4     4     5 1   
     5     4    13 1   
     6     4    14 1   
     7     5     6 1   
     8     5    15 1   
     9     5    16 1   
    10     6     7 1   
    11     6    17 1   
    12     6    18 1   
    13     7     8 1   
    14     7    19 1   
    15     7    20 1   
    16     8     9 1   
    17     8    21 1   
    18     8    22 1   
    19     9    10 1   
    20     9    23 1   
    21     9    24 1   
    22    10    11 1   
    23    10    25 1   
    24    10    26 1   
    25    11    12 1   
    26    11    27 1   
    27    11    28 1   
    28    12    29 1   
    29    12    30 1   
    30    12    31 1   
@<TRIPOS>SUBSTRUCTURE
     1 CRC         1 TEMP              0 ****  ****    0 ROOT
