@<TRIPOS>MOLECULE
CRD
   11    10     1     0     0
SMALL
No Charge or Current Charge


@<TRIPOS>ATOM
      1 CC1         -0.2240    -0.0590     2.5210 c3         1 CRD      -0.072900
      2 CC2          0.3200    -0.2800     1.1280 c2         1 CRD      -0.142200
      3 CC3         -0.1710     0.2900     0.0040 ce         1 CRD      -0.331200
      4 CC4          0.3840     0.0550    -1.3570 c          1 CRD       0.569100
      5 OC1         -0.0780     0.5820    -2.3610 o          1 CRD      -0.517100
      6 HC11        -0.1690     1.0000     2.8020 hc         1 CRD       0.050700
      7 HC12        -1.2730    -0.3710     2.5890 hc         1 CRD       0.050700
      8 HC13         0.3440    -0.6310     3.2650 hc         1 CRD       0.050700
      9 HC2          1.1750    -0.9610     1.0820 ha         1 CRD       0.168000
     10 HC3         -1.0220     0.9680     0.0450 ha         1 CRD       0.198000
     11 HC4          1.2540    -0.6360    -1.4170 h4         1 CRD      -0.021800
@<TRIPOS>BOND
     1     1     2 1   
     2     1     6 1   
     3     1     7 1   
     4     1     8 1   
     5     2     3 2   
     6     2     9 1   
     7     3     4 1   
     8     3    10 1   
     9     4     5 2   
    10     4    11 1   
@<TRIPOS>SUBSTRUCTURE
     1 CRD         1 TEMP              0 ****  ****    0 ROOT
