@<TRIPOS>MOLECULE
CRD
   11    10     1     0     0
SMALL
abcg2


@<TRIPOS>ATOM
      1 CC1         -0.2030    -0.0370     2.4870 c3         1 CRD      -0.072900
      2 CC2          0.3470    -0.1390     1.1140 c2         1 CRD      -0.142200
      3 CC3         -0.3030     0.1790    -0.0110 ce         1 CRD      -0.331200
      4 CC4          0.3670     0.0270    -1.2960 c          1 CRD       0.569100
      5 OC1         -0.1320     0.2810    -2.3720 o          1 CRD      -0.517100
      6 HC11         0.4130     0.6320     3.0920 hc         1 CRD       0.050700
      7 HC12        -1.2280     0.3280     2.4970 hc         1 CRD       0.050700
      8 HC13        -0.1720    -1.0100     2.9810 hc         1 CRD       0.050700
      9 HC2          1.3690    -0.5040     1.0320 ha         1 CRD       0.168000
     10 HC3         -1.3230     0.5490     0.0040 ha         1 CRD       0.198000
     11 HC4          1.4040    -0.3500    -1.2280 h4         1 CRD      -0.021800
@<TRIPOS>BOND
     1     1     2 1   
     2     1     6 1   
     3     1     7 1   
     4     1     8 1   
     5     2     3 2   
     6     2     9 1   
     7     3     4 1   
     8     3    10 1   
     9     4     5 2   
    10     4    11 1   
@<TRIPOS>SUBSTRUCTURE
     1 CRD         1 TEMP              0 ****  ****    0 ROOT
