@<TRIPOS>MOLECULE
CRF
   42    44     1     0     0
SMALL
bcc


@<TRIPOS>ATOM
      1 N1           1.9150     2.9010    -1.2620 n8         1 CRF      -0.902800
      2 CA1          2.5920     1.7030    -0.7990 c3         1 CRF       0.104200
      3 CB1          3.3000     2.0070     0.5460 c3         1 CRF       0.153100
      4 CG1          4.5330     2.8650     0.3170 c3         1 CRF      -0.121100
      5 OG1          2.3930     2.6120     1.4370 oh         1 CRF      -0.578800
      6 C1           1.6530     0.5450    -0.6390 cc         1 CRF       0.459900
      7 N2           0.3780     0.6860    -0.5050 nd         1 CRF      -0.681300
      8 N3           2.0750    -0.7640    -0.5900 n          1 CRF      -0.368300
      9 C2           0.9720    -1.5600    -0.3710 c          1 CRF       0.688700
     10 O2           0.9760    -2.7740    -0.2740 o          1 CRF      -0.583500
     11 CA2         -0.1370    -0.5910    -0.3300 cd         1 CRF       0.003400
     12 CA3          3.4130    -1.2890    -0.6620 c3         1 CRF      -0.052000
     13 C3           4.0060    -1.6970     0.7070 c          1 CRF       0.924600
     14 O3           3.3690    -1.3810     1.7240 o          1 CRF      -0.817300
     15 CB2         -1.4340    -0.9250    -0.1600 ce         1 CRF      -0.012000
     16 CG2         -2.5630    -0.0490    -0.1290 cc         1 CRF      -0.110200
     17 CD1         -2.5850     1.3280    -0.2680 cd         1 CRF      -0.059100
     18 CD2         -3.9370    -0.4480     0.0510 ca         1 CRF      -0.077800
     19 CE2         -4.7140     0.7250     0.0090 ca         1 CRF      -0.063200
     20 NE1         -3.8550     1.7750    -0.1850 na         1 CRF      -0.173400
     21 CE3         -4.5740    -1.6770     0.2410 ca         1 CRF      -0.075000
     22 CZ2         -6.0990     0.7110     0.1500 ca         1 CRF      -0.147000
     23 CZ3         -5.9480    -1.7010     0.3820 ca         1 CRF      -0.164000
     24 CH2         -6.7030    -0.5180     0.3360 ca         1 CRF      -0.124000
     25 HN11         1.9190     2.9300    -2.2720 hn         1 CRF       0.349300
     26 HN12         0.9400     2.8620    -0.9900 hn         1 CRF       0.349300
     27 HA1          3.3650     1.4370    -1.5260 h1         1 CRF       0.066700
     28 HB1          3.5970     1.0690     1.0200 h1         1 CRF       0.131700
     29 HG11         4.2760     3.7860    -0.2090 hc         1 CRF       0.036033
     30 HG12         5.0010     3.1290     1.2660 hc         1 CRF       0.036033
     31 HG13         5.2720     2.3310    -0.2820 hc         1 CRF       0.036033
     32 HOG          2.1070     3.4360     1.0250 ho         1 CRF       0.392000
     33 HA31         3.4150    -2.1520    -1.3310 h1         1 CRF       0.038200
     34 HA32         4.0600    -0.5450    -1.1290 h1         1 CRF       0.038200
     35 OXT          5.0940    -2.2970     0.6330 o          1 CRF      -0.817300
     36 HB2         -1.6390    -1.9830    -0.0330 ha         1 CRF       0.138000
     37 HD1         -1.7640     2.0070    -0.4210 h4         1 CRF       0.191000
     38 HE1         -4.1240     2.7440    -0.2560 hn         1 CRF       0.291700
     39 HE3         -4.0060    -2.5990     0.2780 ha         1 CRF       0.138000
     40 HZ2         -6.6810     1.6230     0.1140 ha         1 CRF       0.122000
     41 HZ3         -6.4540    -2.6450     0.5320 ha         1 CRF       0.122000
     42 HH2         -7.7780    -0.5700     0.4480 ha         1 CRF       0.118000
@<TRIPOS>BOND
     1     1     2 1   
     2     1    25 1   
     3     1    26 1   
     4     2     3 1   
     5     2     6 1   
     6     2    27 1   
     7     3     4 1   
     8     3     5 1   
     9     3    28 1   
    10     4    29 1   
    11     4    30 1   
    12     4    31 1   
    13     5    32 1   
    14     6     7 2   
    15     6     8 1   
    16     7    11 1   
    17     8     9 1   
    18     8    12 1   
    19     9    10 2   
    20     9    11 1   
    21    11    15 2   
    22    12    13 1   
    23    12    33 1   
    24    12    34 1   
    25    13    14 1   
    26    13    35 1   
    27    15    16 1   
    28    15    36 1   
    29    16    17 2   
    30    16    18 1   
    31    17    20 1   
    32    17    37 1   
    33    18    19 ar  
    34    18    21 ar  
    35    19    20 1   
    36    19    22 ar  
    37    20    38 1   
    38    21    23 ar  
    39    21    39 1   
    40    22    24 ar  
    41    22    40 1   
    42    23    24 ar  
    43    23    41 1   
    44    24    42 1   
@<TRIPOS>SUBSTRUCTURE
     1 CRF         1 TEMP              0 ****  ****    0 ROOT
