@<TRIPOS>MOLECULE
CRF
   42    44     1     0     0
SMALL
No Charge or Current Charge


@<TRIPOS>ATOM
      1 N1           1.9640     3.0910    -1.4150 n8         1 CRF      -1.013200
      2 CA1          2.6050     1.8750    -0.7660 c3         1 CRF       0.104200
      3 CB1          3.3090     2.2590     0.5800 c3         1 CRF       0.176300
      4 CG1          4.8490     2.2920     0.4700 c3         1 CRF      -0.121100
      5 OG1          2.8660     3.5730     0.9210 oh         1 CRF      -0.641000
      6 C1           1.6430     0.6880    -0.5890 cc         1 CRF       0.459900
      7 N2           0.3170     0.8560    -0.4570 nd         1 CRF      -0.681300
      8 N3           2.0460    -0.6410    -0.5670 n          1 CRF      -0.301300
      9 C2           0.9540    -1.4560    -0.3940 c          1 CRF       0.546200
     10 O2           0.9210    -2.6780    -0.3150 o          1 CRF      -0.508000
     11 CA2         -0.1310    -0.4580    -0.3320 cd         1 CRF       0.003400
     12 CA3          3.4360    -1.1720    -0.6390 c3         1 CRF      -0.052000
     13 C3           4.0050    -1.6590     0.7150 c          1 CRF       0.714000
     14 O3           3.7910    -0.9810     1.7100 o          1 CRF      -0.712000
     15 CB2         -1.4660    -0.7670    -0.1670 ce         1 CRF      -0.062000
     16 CG2         -2.6820     0.0450    -0.0780 cc         1 CRF      -0.110200
     17 CD1         -2.7860     1.4340    -0.0990 cd         1 CRF      -0.109100
     18 CD2         -4.0320    -0.4370     0.0540 ca         1 CRF      -0.077800
     19 CE2         -4.8640     0.6470     0.1050 ca         1 CRF      -0.063200
     20 NE1         -4.1430     1.8210     0.0140 na         1 CRF      -0.223700
     21 CE3         -4.5290    -1.7490     0.1260 ca         1 CRF      -0.057000
     22 CZ2         -6.2530     0.5040     0.2320 ca         1 CRF      -0.129000
     23 CZ3         -5.9240    -1.9230     0.2550 ca         1 CRF      -0.146000
     24 CH2         -6.7830    -0.8010     0.3080 ca         1 CRF      -0.106000
     25 HN11         1.9000     2.9280    -2.4290 hn         1 CRF       0.404500
     26 HN12         0.9690     3.0840    -1.1430 hn         1 CRF       0.404500
     27 HA1          3.3920     1.5460    -1.4580 h1         1 CRF       0.066700
     28 HB1          3.0300     1.5340     1.3610 h1         1 CRF       0.131700
     29 HG11         5.1730     3.0000    -0.3020 hc         1 CRF       0.036033
     30 HG12         5.2970     2.5930     1.4240 hc         1 CRF       0.036033
     31 HG13         5.2400     1.3010     0.2130 hc         1 CRF       0.036033
     32 HOG          2.4460     3.8430     0.0620 ho         1 CRF       0.431000
     33 HA31         3.4470    -2.0170    -1.3390 h1         1 CRF       0.038200
     34 HA32         4.1160    -0.4110    -1.0360 h1         1 CRF       0.038200
     35 OXT          4.6270    -2.7110     0.7350 o          1 CRF      -0.712000
     36 HB2         -1.6520    -1.8380    -0.0900 ha         1 CRF       0.188000
     37 HD1         -1.9900     2.1700    -0.1850 h4         1 CRF       0.241000
     38 HE1         -4.5110     2.7680     0.0270 hn         1 CRF       0.342000
     39 HE3         -3.8660    -2.6090     0.0850 ha         1 CRF       0.120000
     40 HZ2         -6.9050     1.3730     0.2710 ha         1 CRF       0.104000
     41 HZ3         -6.3400    -2.9270     0.3140 ha         1 CRF       0.104000
     42 HH2         -7.8570    -0.9440     0.4070 ha         1 CRF       0.100000
@<TRIPOS>BOND
     1     1     2 1   
     2     1    25 1   
     3     1    26 1   
     4     2     3 1   
     5     2     6 1   
     6     2    27 1   
     7     3     4 1   
     8     3     5 1   
     9     3    28 1   
    10     4    29 1   
    11     4    30 1   
    12     4    31 1   
    13     5    32 1   
    14     6     7 2   
    15     6     8 1   
    16     7    11 1   
    17     8     9 1   
    18     8    12 1   
    19     9    10 2   
    20     9    11 1   
    21    11    15 2   
    22    12    13 1   
    23    12    33 1   
    24    12    34 1   
    25    13    14 1   
    26    13    35 1   
    27    15    16 1   
    28    15    36 1   
    29    16    17 2   
    30    16    18 1   
    31    17    20 1   
    32    17    37 1   
    33    18    19 ar  
    34    18    21 ar  
    35    19    20 1   
    36    19    22 ar  
    37    20    38 1   
    38    21    23 ar  
    39    21    39 1   
    40    22    24 ar  
    41    22    40 1   
    42    23    24 ar  
    43    23    41 1   
    44    24    42 1   
@<TRIPOS>SUBSTRUCTURE
     1 CRF         1 TEMP              0 ****  ****    0 ROOT
