@<TRIPOS>MOLECULE
CRG
   35    36     1     0     0
SMALL
No Charge or Current Charge


@<TRIPOS>ATOM
      1 N1          -0.5160    -2.9180    -1.6240 n8         1 CRG      -0.995200
      2 CA1         -1.3160    -1.8390    -0.9360 c3         1 CRG       0.155200
      3 CB1         -2.0160    -2.3870     0.3530 c3         1 CRG       0.121300
      4 CG1         -3.1490    -3.3910     0.0450 c3         1 CRG      -0.130100
      5 OG1         -1.0610    -3.0380     1.2110 oh         1 CRG      -0.647000
      6 C1          -0.5410    -0.5380    -0.6440 cc         1 CRG       0.494900
      7 N2           0.7900    -0.5000    -0.4600 nd         1 CRG      -0.598300
      8 N3          -1.1500     0.7100    -0.5660 n          1 CRG      -0.313300
      9 C2          -0.2050     1.6710    -0.3050 c          1 CRG       0.536200
     10 O2          -0.3680     2.8770    -0.1660 o          1 CRG      -0.522000
     11 CA2          1.0240     0.8540    -0.2460 cd         1 CRG       0.049400
     12 CA3         -2.6040     1.0270    -0.6770 c3         1 CRG      -0.050000
     13 C3          -3.2450     1.5700     0.6230 c          1 CRG       0.710000
     14 O3          -3.0380     0.9650     1.6650 o          1 CRG      -0.718500
     15 CB2          2.2890     1.3560    -0.0060 ce         1 CRG      -0.206800
     16 CG2          3.6330     0.7960     0.1010 cc         1 CRG       0.313800
     17 CD2          4.7950     1.4750     0.3520 cd         1 CRG      -0.238000
     18 CE1          5.1790    -0.7080     0.1070 cd         1 CRG       0.362400
     19 ND1          3.8750    -0.5400    -0.0480 nc         1 CRG      -0.608000
     20 NE2          5.7870     0.5070     0.3550 na         1 CRG      -0.308500
     21 OXT         -3.9320     2.5790     0.5520 o          1 CRG      -0.718500
     22 HN11         0.2840    -3.1230    -1.0130 hn         1 CRG       0.405000
     23 HN12        -1.0560    -3.7890    -1.5870 hn         1 CRG       0.405000
     24 HA1         -2.1160    -1.5700    -1.6390 h1         1 CRG       0.072700
     25 HB1         -2.4720    -1.5330     0.8760 h1         1 CRG       0.098700
     26 HG11        -3.6550    -3.6980     0.9680 hc         1 CRG       0.033367
     27 HG12        -3.8990    -2.9340    -0.6110 hc         1 CRG       0.033367
     28 HG13        -2.7640    -4.2920    -0.4490 hc         1 CRG       0.033367
     29 HG1O        -1.5530    -3.3770     1.9910 ho         1 CRG       0.434000
     30 HA31        -2.7340     1.7790    -1.4660 h1         1 CRG       0.040700
     31 HA32        -3.1700     0.1380    -0.9740 h1         1 CRG       0.040700
     32 HB2          2.2950     2.4350     0.1400 ha         1 CRG       0.181000
     33 HD2          4.9750     2.5310     0.5200 h4         1 CRG       0.152000
     34 HE1          5.7310    -1.6400     0.0560 h5         1 CRG       0.044100
     35 HE2          6.7800     0.6440     0.5100 hn         1 CRG       0.339000
@<TRIPOS>BOND
     1     1     2 1   
     2     1    22 1   
     3     1    23 1   
     4     2     3 1   
     5     2     6 1   
     6     2    24 1   
     7     3     4 1   
     8     3     5 1   
     9     3    25 1   
    10     4    26 1   
    11     4    27 1   
    12     4    28 1   
    13     5    29 1   
    14     6     7 2   
    15     6     8 1   
    16     7    11 1   
    17     8     9 1   
    18     8    12 1   
    19     9    10 2   
    20     9    11 1   
    21    11    15 2   
    22    12    13 1   
    23    12    30 1   
    24    12    31 1   
    25    13    14 1   
    26    13    21 1   
    27    15    16 1   
    28    15    32 1   
    29    16    17 2   
    30    16    19 1   
    31    17    20 1   
    32    17    33 1   
    33    18    19 2   
    34    18    20 1   
    35    18    34 1   
    36    20    35 1   
@<TRIPOS>SUBSTRUCTURE
     1 CRG         1 TEMP              0 ****  ****    0 ROOT
