@<TRIPOS>MOLECULE
CRG
   35    36     1     0     0
SMALL
bcc


@<TRIPOS>ATOM
      1 N1          -0.5740    -2.6700    -1.6620 n8         1 CRG      -0.884800
      2 CA1         -1.3950    -1.7280    -0.9310 c3         1 CRG       0.155200
      3 CB1         -1.9890    -2.2460     0.3980 c3         1 CRG       0.098100
      4 CG1         -2.9250    -3.4220     0.1670 c3         1 CRG      -0.130100
      5 OG1         -0.9060    -2.5890     1.2350 oh         1 CRG      -0.584800
      6 C1          -0.5950    -0.4870    -0.6750 cc         1 CRG       0.494900
      7 N2           0.6760    -0.4950    -0.4680 nd         1 CRG      -0.598300
      8 N3          -1.1650     0.7700    -0.6430 n          1 CRG      -0.380300
      9 C2          -0.1750     1.6720    -0.3380 c          1 CRG       0.678700
     10 O2          -0.3140     2.8750    -0.2120 o          1 CRG      -0.597500
     11 CA2          1.0360     0.8270    -0.2460 cd         1 CRG       0.049400
     12 CA3         -2.5510     1.1450    -0.7540 c3         1 CRG      -0.050000
     13 C3          -3.2860     1.2750     0.5990 c          1 CRG       0.920600
     14 O3          -2.6320     1.0560     1.6290 o          1 CRG      -0.823800
     15 CB2          2.2560     1.3410     0.0040 ce         1 CRG      -0.156800
     16 CG2          3.5170     0.6690     0.1180 cc         1 CRG       0.379100
     17 CD2          4.7190     1.3040     0.3560 cd         1 CRG      -0.270600
     18 CE1          5.0070    -0.8520     0.1750 cd         1 CRG       0.362400
     19 ND1          3.7260    -0.6830     0.0100 nc         1 CRG      -0.608000
     20 NE2          5.6460     0.3230     0.3890 na         1 CRG      -0.308900
     21 OXT         -4.4840     1.5990     0.4990 o          1 CRG      -0.823800
     22 HN11         0.2230    -2.9380    -1.0980 hn         1 CRG       0.349800
     23 HN12        -1.1020    -3.5140    -1.8420 hn         1 CRG       0.349800
     24 HA1         -2.2470    -1.4680    -1.5670 h1         1 CRG       0.072700
     25 HB1         -2.5700    -1.4300     0.8450 h1         1 CRG       0.098700
     26 HG11        -3.3610    -3.7580     1.1090 hc         1 CRG       0.033367
     27 HG12        -3.7490    -3.1400    -0.4890 hc         1 CRG       0.033367
     28 HG13        -2.4070    -4.2730    -0.2790 hc         1 CRG       0.033367
     29 HG1O        -1.2590    -3.0110     2.0240 ho         1 CRG       0.395000
     30 HA31        -2.5970     2.1050    -1.2730 h1         1 CRG       0.040700
     31 HA32        -3.0700     0.4340    -1.3970 h1         1 CRG       0.040700
     32 HB2          2.2960     2.4160     0.1390 ha         1 CRG       0.131000
     33 HD2          4.9620     2.3440     0.5000 h4         1 CRG       0.170000
     34 HE1          5.5310    -1.7950     0.1550 h5         1 CRG       0.044100
     35 HE2          6.6380     0.4430     0.5290 hn         1 CRG       0.288700
@<TRIPOS>BOND
     1     1     2 1   
     2     1    22 1   
     3     1    23 1   
     4     2     3 1   
     5     2     6 1   
     6     2    24 1   
     7     3     4 1   
     8     3     5 1   
     9     3    25 1   
    10     4    26 1   
    11     4    27 1   
    12     4    28 1   
    13     5    29 1   
    14     6     7 2   
    15     6     8 1   
    16     7    11 1   
    17     8     9 1   
    18     8    12 1   
    19     9    10 2   
    20     9    11 1   
    21    11    15 2   
    22    12    13 1   
    23    12    30 1   
    24    12    31 1   
    25    13    14 1   
    26    13    21 1   
    27    15    16 1   
    28    15    32 1   
    29    16    17 2   
    30    16    19 1   
    31    17    20 1   
    32    17    33 1   
    33    18    19 2   
    34    18    20 1   
    35    18    34 1   
    36    20    35 1   
@<TRIPOS>SUBSTRUCTURE
     1 CRG         1 TEMP              0 ****  ****    0 ROOT
