@<TRIPOS>MOLECULE
CRH
   52    54     1     0     0
SMALL
No Charge or Current Charge


@<TRIPOS>ATOM
      1 C1          -1.5880    -0.2240    -0.3030 c          1 CRH       0.616700
      2 C2          -1.0950     0.0650     1.1160 c6         1 CRH      -0.172400
      3 C3           0.3670    -0.4030     1.3300 c6         1 CRH      -0.051700
      4 C4           1.2750     0.2910     0.2790 c6         1 CRH      -0.033100
      5 C5           2.1710     0.5530    -4.5650 ca         1 CRH      -0.169000
      6 C6           1.7890     0.5000    -5.9100 ca         1 CRH      -0.032000
      7 C7           0.4520     0.2430    -6.2530 ca         1 CRH      -0.150300
      8 C8          -0.5030     0.0400    -5.2310 ca         1 CRH       0.203100
      9 C9          -1.0440    -0.1040    -2.7890 ca         1 CRH       0.276100
     10 C10          1.6470     0.4100    -2.2110 ca         1 CRH      -0.158000
     11 C11          1.2250     0.3520    -3.5460 ca         1 CRH       0.062000
     12 C12         -0.1270     0.0920    -3.8590 ca         1 CRH      -0.175000
     13 C13         -0.6180    -0.0330    -1.4420 ca         1 CRH      -0.335600
     14 C14          0.7440     0.2150    -1.1570 ca         1 CRH       0.012700
     15 C15          0.0520     0.1880    -7.7260 c3         1 CRH      -0.027800
     16 O1          -2.7270    -0.6340    -0.4960 o          1 CRH      -0.588100
     17 O8          -1.7950    -0.2060    -5.5850 oh         1 CRH      -0.534100
     18 O9          -2.3590    -0.3640    -3.0440 oh         1 CRH      -0.594100
     19 C16          0.8890    -0.1680     2.7900 c3         1 CRH       0.089300
     20 C17         -0.0310    -0.7950     3.8850 c          1 CRH       0.511100
     21 C18         -0.9770     0.1780     4.6570 c3         1 CRH       0.033300
     22 C19         -0.1850     1.1700     5.5610 c3         1 CRH       0.155300
     23 C4M         -1.0620     2.3070     6.1240 c3         1 CRH      -0.122100
     24 O5           2.2360    -0.7000     2.8600 os         1 CRH      -0.432000
     25 O2          -0.0110    -1.9960     4.1460 o          1 CRH      -0.487100
     26 O3          -1.9680    -0.5380     5.4500 oh         1 CRH      -0.650000
     27 O4           0.3930     0.4530     6.6540 oh         1 CRH      -0.660000
     28 H21         -1.8090    -0.3590     1.8330 hc         1 CRH       0.075700
     29 H22         -1.0990     1.1590     1.2230 hc         1 CRH       0.075700
     30 H3           0.4080    -1.4900     1.1600 hc         1 CRH       0.088700
     31 H41          1.4050     1.3490     0.5460 hc         1 CRH       0.063700
     32 H42          2.2800    -0.1520     0.3140 hc         1 CRH       0.063700
     33 H5           3.2110     0.7520    -4.3140 ha         1 CRH       0.120000
     34 H6           2.5360     0.6580    -6.6860 ha         1 CRH       0.114000
     35 H10          2.6930     0.6100    -1.9870 ha         1 CRH       0.121000
     36 H151        -0.7050     0.9480    -7.9570 hc         1 CRH       0.042367
     37 H152         0.9070     0.3650    -8.3900 hc         1 CRH       0.042367
     38 H153        -0.3670    -0.7920    -7.9840 hc         1 CRH       0.042367
     39 HO8         -2.2780    -0.3130    -4.7260 ho         1 CRH       0.499000
     40 HO9         -2.7750    -0.5310    -2.1540 ho         1 CRH       0.545000
     41 H1           0.9110     0.9170     2.9500 h1         1 CRH       0.043700
     42 H7          -1.4850     0.7750     3.8880 h1         1 CRH       0.080700
     43 H4           0.6090     1.6420     4.9670 h1         1 CRH       0.067700
     44 H1'1         3.9970    -0.7690     3.9860 h1         1 CRH       0.041367
     45 H1'2         3.0540     0.7250     4.1680 h1         1 CRH       0.041367
     46 H1'3         2.5050    -0.7820     4.9450 h1         1 CRH       0.041367
     47 H4'1        -0.4590     2.9940     6.7300 hc         1 CRH       0.049033
     48 H4'2        -1.5130     2.8840     5.3080 hc         1 CRH       0.049033
     49 H4'3        -1.8700     1.9140     6.7530 hc         1 CRH       0.049033
     50 HO3         -1.9100    -1.4920     5.2040 ho         1 CRH       0.468000
     51 HO4         -0.3380    -0.0910     7.0230 ho         1 CRH       0.455000
     52 C1M          2.9790    -0.3640     4.0480 c3         1 CRH       0.134900
@<TRIPOS>BOND
     1     1     2 1   
     2     1    13 1   
     3     1    16 2   
     4     2     3 1   
     5     2    28 1   
     6     2    29 1   
     7     3     4 1   
     8     3    19 1   
     9     3    30 1   
    10     4    14 1   
    11     4    31 1   
    12     4    32 1   
    13     5     6 ar  
    14     5    11 ar  
    15     5    33 1   
    16     6     7 ar  
    17     6    34 1   
    18     7     8 ar  
    19     7    15 1   
    20     8    12 ar  
    21     8    17 1   
    22     9    12 ar  
    23     9    13 ar  
    24     9    18 1   
    25    10    11 ar  
    26    10    14 ar  
    27    10    35 1   
    28    11    12 ar  
    29    13    14 ar  
    30    15    36 1   
    31    15    37 1   
    32    15    38 1   
    33    17    39 1   
    34    18    40 1   
    35    19    20 1   
    36    19    24 1   
    37    19    41 1   
    38    20    21 1   
    39    20    25 2   
    40    21    22 1   
    41    21    26 1   
    42    21    42 1   
    43    22    23 1   
    44    22    27 1   
    45    22    43 1   
    46    23    47 1   
    47    23    48 1   
    48    23    49 1   
    49    24    52 1   
    50    26    50 1   
    51    27    51 1   
    52    44    52 1   
    53    45    52 1   
    54    46    52 1   
@<TRIPOS>SUBSTRUCTURE
     1 CRH         1 TEMP              0 ****  ****    0 ROOT
