@<TRIPOS>MOLECULE
CRH
   52    54     1     0     0
SMALL
bcc


@<TRIPOS>ATOM
      1 C1          -1.5270     0.2110    -0.3190 c          1 CRH       0.616700
      2 C2          -1.0450     0.3010     1.1030 c6         1 CRH      -0.172400
      3 C3           0.4020    -0.1530     1.2750 c6         1 CRH      -0.051700
      4 C4           1.2800     0.6200     0.2950 c6         1 CRH      -0.033100
      5 C5           2.2230     0.2620    -4.5520 ca         1 CRH      -0.187000
      6 C6           1.7930     0.1230    -5.8490 ca         1 CRH      -0.050000
      7 C7           0.4400    -0.0200    -6.1830 ca         1 CRH      -0.150300
      8 C8          -0.4960    -0.0220    -5.1590 ca         1 CRH       0.203100
      9 C9          -1.0010     0.1250    -2.7110 ca         1 CRH       0.276100
     10 C10          1.7190     0.4120    -2.1520 ca         1 CRH      -0.176000
     11 C11          1.2950     0.2660    -3.5010 ca         1 CRH       0.062000
     12 C12         -0.0870     0.1230    -3.8010 ca         1 CRH      -0.175000
     13 C13         -0.5590     0.2630    -1.3940 ca         1 CRH      -0.335600
     14 C14          0.8330     0.4210    -1.1220 ca         1 CRH       0.012700
     15 C15          0.0040    -0.1750    -7.6090 c3         1 CRH      -0.027800
     16 O1          -2.7380     0.1000    -0.5430 o          1 CRH      -0.588100
     17 O8          -1.7780    -0.1650    -5.5210 oh         1 CRH      -0.495100
     18 O9          -2.2940    -0.0130    -2.9770 oh         1 CRH      -0.555100
     19 C16          0.9090     0.0360     2.7110 c3         1 CRH       0.066100
     20 C17         -0.0150    -0.6890     3.6880 c          1 CRH       0.511100
     21 C18         -1.0020     0.1340     4.4900 c3         1 CRH       0.010100
     22 C19         -0.2490     0.9110     5.5910 c3         1 CRH       0.132100
     23 C4M         -1.1940     1.8150     6.3680 c3         1 CRH      -0.122100
     24 O5           2.2020    -0.4880     2.7690 os         1 CRH      -0.385600
     25 O2           0.0290    -1.8890     3.8130 o          1 CRH      -0.487100
     26 O3          -2.0010    -0.6770     5.0370 oh         1 CRH      -0.587800
     27 O4           0.4550     0.0280     6.4310 oh         1 CRH      -0.597800
     28 H21         -1.7440    -0.2730     1.7150 hc         1 CRH       0.075700
     29 H22         -1.1470     1.3510     1.4070 hc         1 CRH       0.075700
     30 H3           0.4620    -1.2230     1.0450 hc         1 CRH       0.088700
     31 H41          1.2240     1.6880     0.5420 hc         1 CRH       0.063700
     32 H42          2.3250     0.3310     0.3920 hc         1 CRH       0.063700
     33 H5           3.2770     0.3690    -4.3330 ha         1 CRH       0.138000
     34 H6           2.5220     0.1230    -6.6510 ha         1 CRH       0.132000
     35 H10          2.7790     0.5220    -1.9580 ha         1 CRH       0.139000
     36 H151        -0.6980     0.6060    -7.9090 hc         1 CRH       0.042367
     37 H152         0.8610    -0.1230    -8.2790 hc         1 CRH       0.042367
     38 H153        -0.4920    -1.1320    -7.7810 hc         1 CRH       0.042367
     39 HO8         -2.3530    -0.1590    -4.7390 ho         1 CRH       0.460000
     40 HO9         -2.7850     0.0050    -2.1010 ho         1 CRH       0.506000
     41 H1           0.9080     1.1150     2.9430 h1         1 CRH       0.043700
     42 H7          -1.4620     0.8760     3.8230 h1         1 CRH       0.080700
     43 H4           0.5080     1.5380     5.1110 h1         1 CRH       0.067700
     44 H1'1         3.9440    -0.5040     3.7950 h1         1 CRH       0.041367
     45 H1'2         3.0160     0.9930     3.9830 h1         1 CRH       0.041367
     46 H1'3         2.5140    -0.4810     4.8370 h1         1 CRH       0.041367
     47 H4'1        -0.6380     2.3930     7.1070 hc         1 CRH       0.049033
     48 H4'2        -1.6960     2.5180     5.7040 hc         1 CRH       0.049033
     49 H4'3        -1.9580     1.2390     6.8910 hc         1 CRH       0.049033
     50 HO3         -1.6840    -1.5910     5.0260 ho         1 CRH       0.429000
     51 HO4         -0.1840    -0.4930     6.9320 ho         1 CRH       0.416000
     52 C1M          2.9410    -0.0980     3.9050 c3         1 CRH       0.111700
@<TRIPOS>BOND
     1     1     2 1   
     2     1    13 1   
     3     1    16 2   
     4     2     3 1   
     5     2    28 1   
     6     2    29 1   
     7     3     4 1   
     8     3    19 1   
     9     3    30 1   
    10     4    14 1   
    11     4    31 1   
    12     4    32 1   
    13     5     6 ar  
    14     5    11 ar  
    15     5    33 1   
    16     6     7 ar  
    17     6    34 1   
    18     7     8 ar  
    19     7    15 1   
    20     8    12 ar  
    21     8    17 1   
    22     9    12 ar  
    23     9    13 ar  
    24     9    18 1   
    25    10    11 ar  
    26    10    14 ar  
    27    10    35 1   
    28    11    12 ar  
    29    13    14 ar  
    30    15    36 1   
    31    15    37 1   
    32    15    38 1   
    33    17    39 1   
    34    18    40 1   
    35    19    20 1   
    36    19    24 1   
    37    19    41 1   
    38    20    21 1   
    39    20    25 2   
    40    21    22 1   
    41    21    26 1   
    42    21    42 1   
    43    22    23 1   
    44    22    27 1   
    45    22    43 1   
    46    23    47 1   
    47    23    48 1   
    48    23    49 1   
    49    24    52 1   
    50    26    50 1   
    51    27    51 1   
    52    44    52 1   
    53    45    52 1   
    54    46    52 1   
@<TRIPOS>SUBSTRUCTURE
     1 CRH         1 TEMP              0 ****  ****    0 ROOT
