@<TRIPOS>MOLECULE
CRI
   54    56     1     0     0
SMALL
abcg2


@<TRIPOS>ATOM
      1 N           -1.3520    -0.2800    -7.3460 ns         1 CRI      -0.392400
      2 OH          -1.9120    -0.5260    -8.5590 oh         1 CRI      -0.416100
      3 O           -3.3400    -0.1870    -6.2810 o          1 CRI      -0.572100
      4 C           -2.1210    -0.2110    -6.2470 c          1 CRI       0.619700
      5 C1          -0.1380    -0.7650    -4.7670 ca         1 CRI      -0.072000
      6 C2          -1.3620    -0.1290    -4.9650 ca         1 CRI      -0.152600
      7 C3          -1.9350     0.5730    -3.9070 ca         1 CRI      -0.072000
      8 C4          -1.2890     0.6550    -2.6870 ca         1 CRI      -0.104500
      9 C5          -0.0620     0.0220    -2.4820 cp         1 CRI      -0.013000
     10 C6           0.5010    -0.6910    -3.5410 ca         1 CRI      -0.104500
     11 C11          0.6190     0.0930    -1.1730 cp         1 CRI      -0.022000
     12 C12         -0.1370     0.0470    -0.0020 ca         1 CRI      -0.108000
     13 C13          0.4890     0.1130     1.2410 ca         1 CRI      -0.021000
     14 C14          1.8810     0.2050     1.2970 ca         1 CRI      -0.143000
     15 C15          2.6310     0.2470     0.1340 ca         1 CRI      -0.114600
     16 C16          2.0030     0.2100    -1.1040 ca         1 CRI      -0.084000
     17 C20          4.1120     0.4680     0.1890 c          1 CRI       0.613700
     18 O21          4.6010     1.3900    -0.4530 o          1 CRI      -0.590100
     19 N22          4.8380    -0.3390     0.9850 n          1 CRI      -0.408800
     20 C23          6.2420    -0.0550     1.2030 c3         1 CRI       0.086800
     21 C27          4.3940    -1.6270     1.4820 c3         1 CRI       0.086800
     22 N31         -0.1820     0.0840     2.4650 ns         1 CRI      -0.145000
     23 C33         -1.5170     0.0230     2.7120 c          1 CRI       0.624700
     24 O34         -2.3630    -0.0860     1.8400 o          1 CRI      -0.577100
     25 C35         -3.0760    -0.5410     4.5490 ca         1 CRI      -0.066500
     26 C36         -3.4800    -0.5050     5.8710 ca         1 CRI      -0.120500
     27 C37         -2.7310     0.1690     6.8360 ca         1 CRI      -0.046300
     28 C38         -1.5640     0.8110     6.4280 ca         1 CRI      -0.120500
     29 C39         -1.1440     0.7660     5.1080 ca         1 CRI      -0.066500
     30 C40         -1.8930     0.0820     4.1530 ca         1 CRI      -0.163600
     31 HN          -0.3430    -0.2720    -7.3300 hn         1 CRI       0.341500
     32 HO1         -2.1040     0.3360    -8.9520 ho         1 CRI       0.440000
     33 H7           0.3170    -1.3570    -5.5510 ha         1 CRI       0.125000
     34 H8          -2.8850     1.0720    -4.0420 ha         1 CRI       0.125000
     35 H9          -1.7400     1.2350    -1.8910 ha         1 CRI       0.123500
     36 H10          1.4330    -1.2220    -3.4010 ha         1 CRI       0.123500
     37 H17         -1.2070    -0.0610    -0.0670 ha         1 CRI       0.156000
     38 H18          2.3740     0.2550     2.2620 ha         1 CRI       0.116000
     39 H19          2.5920     0.2790    -2.0100 ha         1 CRI       0.133000
     40 H24          6.5080    -0.3500     2.2170 h1         1 CRI       0.042367
     41 H25          6.8760    -0.6100     0.5070 h1         1 CRI       0.042367
     42 H26          6.4440     1.0050     1.0890 h1         1 CRI       0.042367
     43 H28          3.4380    -1.9130     1.0570 h1         1 CRI       0.042367
     44 H29          5.1230    -2.3890     1.1990 h1         1 CRI       0.042367
     45 H30          4.3100    -1.6270     2.5700 h1         1 CRI       0.042367
     46 H32          0.4250     0.0750     3.2700 hn         1 CRI       0.154000
     47 H43         -3.6790    -1.0660     3.8200 ha         1 CRI       0.124000
     48 H44         -4.3970    -1.0050     6.1590 ha         1 CRI       0.117500
     49 H41         -0.9760     1.3640     7.1510 ha         1 CRI       0.117500
     50 H42         -0.2420     1.3000     4.8360 ha         1 CRI       0.124000
     51 H46         -2.9210    -0.7620     8.7560 hc         1 CRI       0.047700
     52 H47         -2.6720     0.9770     8.8310 hc         1 CRI       0.047700
     53 H48         -4.2420     0.3220     8.3600 hc         1 CRI       0.047700
     54 C45         -3.1650     0.1840     8.2700 c3         1 CRI      -0.053800
@<TRIPOS>BOND
     1     1     2 1   
     2     1     4 1   
     3     1    31 1   
     4     2    32 1   
     5     3     4 2   
     6     4     6 1   
     7     5     6 ar  
     8     5    10 ar  
     9     5    33 1   
    10     6     7 ar  
    11     7     8 ar  
    12     7    34 1   
    13     8     9 ar  
    14     8    35 1   
    15     9    10 ar  
    16     9    11 1   
    17    10    36 1   
    18    11    12 ar  
    19    11    16 ar  
    20    12    13 ar  
    21    12    37 1   
    22    13    14 ar  
    23    13    22 1   
    24    14    15 ar  
    25    14    38 1   
    26    15    16 ar  
    27    15    17 1   
    28    16    39 1   
    29    17    18 2   
    30    17    19 1   
    31    19    20 1   
    32    19    21 1   
    33    20    40 1   
    34    20    41 1   
    35    20    42 1   
    36    21    43 1   
    37    21    44 1   
    38    21    45 1   
    39    22    23 1   
    40    22    46 1   
    41    23    24 2   
    42    23    30 1   
    43    25    26 ar  
    44    25    30 ar  
    45    25    47 1   
    46    26    27 ar  
    47    26    48 1   
    48    27    28 ar  
    49    27    54 1   
    50    28    29 ar  
    51    28    49 1   
    52    29    30 ar  
    53    29    50 1   
    54    51    54 1   
    55    52    54 1   
    56    53    54 1   
@<TRIPOS>SUBSTRUCTURE
     1 CRI         1 TEMP              0 ****  ****    0 ROOT
