@<TRIPOS>MOLECULE
CRI
   54    56     1     0     0
SMALL
No Charge or Current Charge


@<TRIPOS>ATOM
      1 N           -1.5340    -0.7790    -7.5060 ns         1 CRI      -0.392400
      2 OH          -2.2480    -1.0870    -8.7290 oh         1 CRI      -0.416100
      3 O           -3.1820     0.5700    -6.6810 o          1 CRI      -0.572100
      4 C           -2.1310    -0.0340    -6.4930 c          1 CRI       0.619700
      5 C1          -0.1570    -0.6220    -4.9540 ca         1 CRI      -0.072000
      6 C2          -1.4110     0.0050    -5.1570 ca         1 CRI      -0.152600
      7 C3          -1.9980     0.6900    -4.0700 ca         1 CRI      -0.072000
      8 C4          -1.3580     0.7450    -2.8210 ca         1 CRI      -0.104500
      9 C5          -0.1070     0.1200    -2.6080 cp         1 CRI      -0.013000
     10 C6           0.4790    -0.5620    -3.7010 ca         1 CRI      -0.104500
     11 C11          0.5750     0.1800    -1.2750 cp         1 CRI      -0.022000
     12 C12         -0.1720     0.1280    -0.0730 ca         1 CRI      -0.108000
     13 C13          0.4610     0.1980     1.1860 ca         1 CRI      -0.021000
     14 C14          1.8620     0.2960     1.2420 ca         1 CRI      -0.143000
     15 C15          2.6420     0.3250     0.0640 ca         1 CRI      -0.114600
     16 C16          1.9830     0.2880    -1.1820 ca         1 CRI      -0.084000
     17 C20          4.1560     0.4550     0.0980 c          1 CRI       0.613700
     18 O21          4.7420     1.0870    -0.7740 o          1 CRI      -0.590100
     19 N22          4.8720    -0.0840     1.1960 n          1 CRI      -0.408800
     20 C23          6.3070     0.2360     1.3550 c3         1 CRI       0.086800
     21 C27          4.4110    -1.3200     1.8710 c3         1 CRI       0.086800
     22 N31         -0.2420     0.1630     2.4230 ns         1 CRI      -0.145000
     23 C33         -1.5950     0.2440     2.7360 c          1 CRI       0.624700
     24 O34         -2.4700     0.4090     1.8930 o          1 CRI      -0.577100
     25 C35         -3.2930     0.2070     4.6180 ca         1 CRI      -0.066500
     26 C36         -3.6450     0.1020     5.9740 ca         1 CRI      -0.120500
     27 C37         -2.6560    -0.0860     6.9550 ca         1 CRI      -0.046300
     28 C38         -1.3100    -0.1710     6.5630 ca         1 CRI      -0.120500
     29 C39         -0.9500    -0.0670     5.2080 ca         1 CRI      -0.066500
     30 C40         -1.9400     0.1260     4.2110 ca         1 CRI      -0.163600
     31 HN          -0.7560    -1.3930    -7.2770 hn         1 CRI       0.341500
     32 HO1         -1.6130    -0.8350    -9.4400 ho         1 CRI       0.440000
     33 H7           0.3440    -1.1580    -5.7550 ha         1 CRI       0.125000
     34 H8          -2.9590     1.1880    -4.1900 ha         1 CRI       0.125000
     35 H9          -1.8360     1.2930    -2.0120 ha         1 CRI       0.123500
     36 H10          1.4340    -1.0650    -3.5760 ha         1 CRI       0.123500
     37 H17         -1.2480     0.0160    -0.1430 ha         1 CRI       0.156000
     38 H18          2.3430     0.3800     2.2130 ha         1 CRI       0.116000
     39 H19          2.5730     0.3440    -2.0940 ha         1 CRI       0.133000
     40 H24          6.6610    -0.0900     2.3410 h1         1 CRI       0.042367
     41 H25          6.8900    -0.2730     0.5770 h1         1 CRI       0.042367
     42 H26          6.4600     1.3200     1.2700 h1         1 CRI       0.042367
     43 H28          3.6380    -1.8240     1.2770 h1         1 CRI       0.042367
     44 H29          5.2510    -2.0150     1.9980 h1         1 CRI       0.042367
     45 H30          4.0070    -1.0740     2.8610 h1         1 CRI       0.042367
     46 H32          0.3610     0.0570     3.2260 hn         1 CRI       0.154000
     47 H43         -4.0810     0.3530     3.8820 ha         1 CRI       0.124000
     48 H44         -4.6920     0.1660     6.2620 ha         1 CRI       0.117500
     49 H41         -0.5340    -0.3210     7.3110 ha         1 CRI       0.117500
     50 H42          0.1050    -0.1390     4.9540 ha         1 CRI       0.124000
     51 H46         -3.2230    -1.2490     8.6940 hc         1 CRI       0.047700
     52 H47         -2.2450     0.1790     9.0740 hc         1 CRI       0.047700
     53 H48         -3.9490     0.3660     8.6450 hc         1 CRI       0.047700
     54 C45         -3.0390    -0.2030     8.4220 c3         1 CRI      -0.053800
@<TRIPOS>BOND
     1     1     2 1   
     2     1     4 1   
     3     1    31 1   
     4     2    32 1   
     5     3     4 2   
     6     4     6 1   
     7     5     6 ar  
     8     5    10 ar  
     9     5    33 1   
    10     6     7 ar  
    11     7     8 ar  
    12     7    34 1   
    13     8     9 ar  
    14     8    35 1   
    15     9    10 ar  
    16     9    11 1   
    17    10    36 1   
    18    11    12 ar  
    19    11    16 ar  
    20    12    13 ar  
    21    12    37 1   
    22    13    14 ar  
    23    13    22 1   
    24    14    15 ar  
    25    14    38 1   
    26    15    16 ar  
    27    15    17 1   
    28    16    39 1   
    29    17    18 2   
    30    17    19 1   
    31    19    20 1   
    32    19    21 1   
    33    20    40 1   
    34    20    41 1   
    35    20    42 1   
    36    21    43 1   
    37    21    44 1   
    38    21    45 1   
    39    22    23 1   
    40    22    46 1   
    41    23    24 2   
    42    23    30 1   
    43    25    26 ar  
    44    25    30 ar  
    45    25    47 1   
    46    26    27 ar  
    47    26    48 1   
    48    27    28 ar  
    49    27    54 1   
    50    28    29 ar  
    51    28    49 1   
    52    29    30 ar  
    53    29    50 1   
    54    51    54 1   
    55    52    54 1   
    56    53    54 1   
@<TRIPOS>SUBSTRUCTURE
     1 CRI         1 TEMP              0 ****  ****    0 ROOT
