@<TRIPOS>MOLECULE
CRK
   38    39     1     0     0
SMALL
abcg2


@<TRIPOS>ATOM
      1 C1          -1.1210    -0.6390     0.1040 cc         1 CRK       0.149600
      2 C2           1.0180    -1.2860     0.2650 c          1 CRK       0.459700
      3 C3          -1.3650    -3.7480    -0.5990 c          1 CRK       0.588900
      4 CA1         -2.5790    -0.7150     0.0400 c          1 CRK       0.533800
      5 CA2          0.8820     0.1440     0.0370 cd         1 CRK       0.130600
      6 CA3         -0.6600    -3.0950     0.5630 c3         1 CRK      -0.003000
      7 CB          -3.3130     0.5930    -0.1200 c3         1 CRK      -0.159400
      8 CB2          1.8110     1.1730    -0.1040 cf         1 CRK      -0.014600
      9 CD2          4.1250     0.1980     0.1450 cc         1 CRK      -0.069500
     10 CD1          3.7720     2.5610    -0.2890 cc         1 CRK      -0.069500
     11 CE          -7.3160     1.6190     0.1180 c3         1 CRK       0.042900
     12 CE2          5.4680     0.4060     0.1490 cd         1 CRK      -0.372200
     13 CE1          5.1110     2.7830    -0.2890 cd         1 CRK      -0.372200
     14 CG          -4.8120     0.4480     0.0710 c3         1 CRK       0.079600
     15 CG2          3.2030     1.2660    -0.0760 cc         1 CRK      -0.238000
     16 CZ           6.0590     1.7120    -0.0700 c          1 CRK       0.575500
     17 N2          -0.4520     0.4590    -0.0470 nc         1 CRK      -0.599000
     18 N3          -0.2940    -1.7310     0.2940 n          1 CRK      -0.319400
     19 O1          -3.1540    -1.7870     0.0970 o          1 CRK      -0.570100
     20 O2           1.9920    -2.0190     0.4170 o          1 CRK      -0.604000
     21 O3          -1.9380    -4.8020    -0.5090 o          1 CRK      -0.546100
     22 OH           7.2880     1.8950    -0.0690 o          1 CRK      -0.645100
     23 SD          -5.5920     2.0670    -0.1790 ss         1 CRK      -0.454000
     24 H3          -1.2710    -3.2150    -1.5620 h4         1 CRK      -0.008800
     25 HA31        -1.2620    -3.1830     1.4680 h1         1 CRK       0.081200
     26 HA32         0.2680    -3.6470     0.7410 h1         1 CRK       0.081200
     27 HB1         -2.9000     1.3250     0.5770 hc         1 CRK       0.087700
     28 HB2A        -3.0890     0.9810    -1.1190 hc         1 CRK       0.087700
     29 HB2          1.3120     2.1240    -0.2790 ha         1 CRK       0.157000
     30 HD2          3.7410    -0.7980     0.3150 ha         1 CRK       0.176500
     31 HD1          3.0980     3.3940    -0.4580 ha         1 CRK       0.176500
     32 HE1A        -7.6460     0.8480    -0.5770 h1         1 CRK       0.055033
     33 HE2A        -7.4620     1.2710     1.1390 h1         1 CRK       0.055033
     34 HE3         -7.9210     2.5100    -0.0380 h1         1 CRK       0.055033
     35 HE2          6.1390    -0.4280     0.3210 ha         1 CRK       0.170500
     36 HE1          5.4970     3.7820    -0.4580 ha         1 CRK       0.170500
     37 HG1         -5.2340    -0.2630    -0.6400 h1         1 CRK       0.064700
     38 HG2         -5.0400     0.0940     1.0790 h1         1 CRK       0.064700
@<TRIPOS>BOND
     1     1     4 1   
     2     1    17 1   
     3     1    18 2   
     4     2     5 1   
     5     2    18 1   
     6     2    20 2   
     7     3     6 1   
     8     3    21 2   
     9     3    24 1   
    10     4     7 1   
    11     4    19 2   
    12     5     8 1   
    13     5    17 2   
    14     6    18 1   
    15     6    25 1   
    16     6    26 1   
    17     7    14 1   
    18     7    27 1   
    19     7    28 1   
    20     8    15 2   
    21     8    29 1   
    22     9    12 2   
    23     9    15 1   
    24     9    30 1   
    25    10    13 2   
    26    10    15 1   
    27    10    31 1   
    28    11    23 1   
    29    11    32 1   
    30    11    33 1   
    31    11    34 1   
    32    12    16 1   
    33    12    35 1   
    34    13    16 1   
    35    13    36 1   
    36    14    23 1   
    37    14    37 1   
    38    14    38 1   
    39    16    22 2   
@<TRIPOS>SUBSTRUCTURE
     1 CRK         1 TEMP              0 ****  ****    0 ROOT
