@<TRIPOS>MOLECULE
CRK
   38    39     1     0     0
SMALL
No Charge or Current Charge


@<TRIPOS>ATOM
      1 C1          -0.9580    -0.8180    -0.2140 cc         1 CRK       0.149600
      2 C2           1.1300    -1.6680    -0.5140 c          1 CRK       0.459700
      3 C3          -1.4890    -4.0830    -0.6890 c          1 CRK       0.588900
      4 CA1         -2.4300    -0.7620     0.1340 c          1 CRK       0.533800
      5 CA2          1.0190    -0.2260    -0.8310 cd         1 CRK       0.130600
      6 CA3         -0.5800    -3.3310     0.2990 c3         1 CRK      -0.003000
      7 CB          -3.1230     0.6010    -0.0330 c3         1 CRK      -0.159400
      8 CB2          2.1380     0.5950    -1.2980 cf         1 CRK      -0.014600
      9 CD2          3.6830     0.4340     0.6100 cc         1 CRK      -0.069500
     10 CD1          3.8320     2.3330    -0.9610 cc         1 CRK      -0.069500
     11 CE          -7.0630     2.0390     0.5610 c3         1 CRK       0.042900
     12 CE2          4.7360     0.9530     1.3330 cd         1 CRK      -0.372200
     13 CE1          4.8840     2.8490    -0.2360 cd         1 CRK      -0.372200
     14 CG          -4.6220     0.6260     0.3210 c3         1 CRK       0.079600
     15 CG2          3.1840     1.1030    -0.5690 cc         1 CRK      -0.238000
     16 CZ           5.4140     2.1980     0.9650 c          1 CRK       0.575500
     17 N2          -0.2110     0.2670    -0.6580 nc         1 CRK      -0.599000
     18 N3          -0.1640    -1.9640    -0.1300 n          1 CRK      -0.319400
     19 O1          -3.0720    -1.7320     0.5320 o          1 CRK      -0.570100
     20 O2           2.0890    -2.4320    -0.5740 o          1 CRK      -0.604000
     21 O3          -1.5720    -3.8210    -1.8880 o          1 CRK      -0.546100
     22 OH           6.3470     2.6570     1.6070 o          1 CRK      -0.645100
     23 SD          -5.3030     2.3260     0.0680 ss         1 CRK      -0.454000
     24 H3          -2.0890    -4.9070    -0.2440 h4         1 CRK      -0.008800
     25 HA31        -1.1140    -3.2640     1.2540 h1         1 CRK       0.081200
     26 HA32         0.3020    -3.9600     0.4690 h1         1 CRK       0.081200
     27 HB1         -2.5530     1.3370     0.5440 hc         1 CRK       0.087700
     28 HB2A        -2.9370     0.9460    -1.0560 hc         1 CRK       0.087700
     29 HB2          1.8730     1.2030    -2.1640 ha         1 CRK       0.157000
     30 HD2          3.2190    -0.4960     0.9310 ha         1 CRK       0.176500
     31 HD1          3.4780     2.8600    -1.8470 ha         1 CRK       0.176500
     32 HE1A        -7.5140     1.2790    -0.0900 h1         1 CRK       0.055033
     33 HE2A        -7.1070     1.6930     1.6020 h1         1 CRK       0.055033
     34 HE3         -7.6310     2.9730     0.4690 h1         1 CRK       0.055033
     35 HE2          5.1210     0.4630     2.2200 ha         1 CRK       0.170500
     36 HE1          5.3790     3.7710    -0.5180 ha         1 CRK       0.170500
     37 HG1         -5.1690    -0.0810    -0.3170 h1         1 CRK       0.064700
     38 HG2         -4.7640     0.3320     1.3690 h1         1 CRK       0.064700
@<TRIPOS>BOND
     1     1     4 1   
     2     1    17 1   
     3     1    18 2   
     4     2     5 1   
     5     2    18 1   
     6     2    20 2   
     7     3     6 1   
     8     3    21 2   
     9     3    24 1   
    10     4     7 1   
    11     4    19 2   
    12     5     8 1   
    13     5    17 2   
    14     6    18 1   
    15     6    25 1   
    16     6    26 1   
    17     7    14 1   
    18     7    27 1   
    19     7    28 1   
    20     8    15 2   
    21     8    29 1   
    22     9    12 2   
    23     9    15 1   
    24     9    30 1   
    25    10    13 2   
    26    10    15 1   
    27    10    31 1   
    28    11    23 1   
    29    11    32 1   
    30    11    33 1   
    31    11    34 1   
    32    12    16 1   
    33    12    35 1   
    34    13    16 1   
    35    13    36 1   
    36    14    23 1   
    37    14    37 1   
    38    14    38 1   
    39    16    22 2   
@<TRIPOS>SUBSTRUCTURE
     1 CRK         1 TEMP              0 ****  ****    0 ROOT
