@<TRIPOS>MOLECULE
CRL
   58    59     1     0     0
SMALL
bcc


@<TRIPOS>ATOM
      1 N1           0.9410     3.5780    -1.0670 ns         1 CRL      -0.554900
      2 C1           0.1960     2.6380    -1.7290 c          1 CRL       0.778100
      3 O1          -0.9780     2.8610    -2.0030 o          1 CRL      -0.642100
      4 N2           0.8160     1.4680    -2.0530 n          1 CRL      -0.472800
      5 C2           2.0260     0.9830    -1.4090 c6         1 CRL       0.063000
      6 C3           2.8070     0.1050    -2.3690 c6         1 CRL       0.118400
      7 O2           2.0200    -0.9480    -2.8730 os         1 CRL      -0.396600
      8 C4           0.8910    -0.4440    -3.5500 c6         1 CRL       0.118400
      9 C5           0.0200     0.4040    -2.6420 c6         1 CRL       0.063000
     10 C6           0.3540     4.8760    -0.8620 c3         1 CRL       0.070700
     11 C7           0.0220     5.5390    -2.1960 c          1 CRL       0.652100
     12 O3           0.7290     5.4240    -3.1780 o          1 CRL      -0.580100
     13 N3          -1.0770     6.3310    -2.1730 ns         1 CRL      -0.573900
     14 C8          -1.5470     7.0640    -3.3280 c6         1 CRL       0.199500
     15 C9          -1.7380     6.1430    -4.4660 c1         1 CRL       0.194700
     16 N4          -1.9320     5.4500    -5.3620 n1         1 CRL      -0.330800
     17 C10         -0.5590     8.1660    -3.7630 c6         1 CRL      -0.064900
     18 C11         -0.3120     9.1880    -2.6670 c6         1 CRL      -0.188600
     19 S1          -1.8210    10.0490    -2.2470 s6         1 CRL       1.003000
     20 O4          -1.6120    10.8560    -1.0480 o          1 CRL      -0.585300
     21 O5          -2.3300    10.7050    -3.4530 o          1 CRL      -0.585300
     22 C12         -2.8980     8.6750    -1.8640 c6         1 CRL      -0.188600
     23 C13         -2.9300     7.6620    -3.0010 c6         1 CRL      -0.064900
     24 C14          1.3060     5.7740    -0.0710 c3         1 CRL       0.020400
     25 SI1          1.7830     5.1070     1.6490 s6         1 CRL      -0.653200
     26 C15          0.2480     4.3780     2.4600 c3         1 CRL       0.007367
     27 C16          3.1320     3.7950     1.5320 c3         1 CRL       0.007367
     28 C17          2.4340     6.5670     2.6460 c3         1 CRL       0.007367
     29 HN1          1.9430     3.5700    -1.1760 hn         1 CRL       0.313500
     30 H21          1.7720     0.4200    -0.5030 h1         1 CRL       0.056450
     31 H22          2.6800     1.7990    -1.1080 h1         1 CRL       0.056450
     32 H31          3.1930     0.7250    -3.1900 h1         1 CRL       0.056200
     33 H32          3.6580    -0.3360    -1.8480 h1         1 CRL       0.056200
     34 H41          0.3180    -1.2970    -3.9140 h1         1 CRL       0.056200
     35 H42          1.2000     0.1540    -4.4190 h1         1 CRL       0.056200
     36 H51         -0.7930     0.8280    -3.2250 h1         1 CRL       0.056450
     37 H52         -0.4240    -0.2210    -1.8560 h1         1 CRL       0.056450
     38 H6          -0.5680     4.7570    -0.2860 h1         1 CRL       0.074700
     39 HN3         -1.7280     6.2040    -1.4130 hn         1 CRL       0.321500
     40 H101        -0.9500     8.6560    -4.6560 hc         1 CRL       0.083950
     41 H102         0.3960     7.7240    -4.0420 hc         1 CRL       0.083950
     42 H111         0.0700     8.7360    -1.7510 h1         1 CRL       0.106450
     43 H112         0.3970     9.9510    -2.9950 h1         1 CRL       0.106450
     44 H121        -3.8910     9.0980    -1.7010 h1         1 CRL       0.106450
     45 H122        -2.5580     8.2530    -0.9170 h1         1 CRL       0.106450
     46 H131        -3.6170     6.8590    -2.7240 hc         1 CRL       0.083950
     47 H132        -3.3340     8.1260    -3.9000 hc         1 CRL       0.083950
     48 H141         2.2090     5.9790    -0.6570 h1         1 CRL       0.067700
     49 H142         0.8220     6.7430     0.0830 h1         1 CRL       0.067700
     50 H151        -0.0980     3.4970     1.9160 h1         1 CRL       0.057700
     51 H152         0.4530     4.0710     3.4870 h1         1 CRL       0.057700
     52 H153        -0.5730     5.0970     2.4870 h1         1 CRL       0.057700
     53 H161         2.7590     2.8650     1.1010 h1         1 CRL       0.057700
     54 H162         3.9710     4.1340     0.9210 h1         1 CRL       0.057700
     55 H163         3.5230     3.5590     2.5230 h1         1 CRL       0.057700
     56 H171         2.7250     6.2580     3.6520 h1         1 CRL       0.057700
     57 H172         3.3120     7.0090     2.1710 h1         1 CRL       0.057700
     58 H173         1.6820     7.3520     2.7450 h1         1 CRL       0.057700
@<TRIPOS>BOND
     1     1     2 1   
     2     1    10 1   
     3     1    29 1   
     4     2     3 2   
     5     2     4 1   
     6     4     5 1   
     7     4     9 1   
     8     5     6 1   
     9     5    30 1   
    10     5    31 1   
    11     6     7 1   
    12     6    32 1   
    13     6    33 1   
    14     7     8 1   
    15     8     9 1   
    16     8    34 1   
    17     8    35 1   
    18     9    36 1   
    19     9    37 1   
    20    10    11 1   
    21    10    24 1   
    22    10    38 1   
    23    11    12 2   
    24    11    13 1   
    25    13    14 1   
    26    13    39 1   
    27    14    15 1   
    28    14    17 1   
    29    14    23 1   
    30    15    16 3   
    31    17    18 1   
    32    17    40 1   
    33    17    41 1   
    34    18    19 1   
    35    18    42 1   
    36    18    43 1   
    37    19    20 2   
    38    19    21 2   
    39    19    22 1   
    40    22    23 1   
    41    22    44 1   
    42    22    45 1   
    43    23    46 1   
    44    23    47 1   
    45    24    25 1   
    46    24    48 1   
    47    24    49 1   
    48    25    26 1   
    49    25    27 1   
    50    25    28 1   
    51    26    50 1   
    52    26    51 1   
    53    26    52 1   
    54    27    53 1   
    55    27    54 1   
    56    27    55 1   
    57    28    56 1   
    58    28    57 1   
    59    28    58 1   
@<TRIPOS>SUBSTRUCTURE
     1 CRL         1 TEMP              0 ****  ****    0 ROOT
