@<TRIPOS>MOLECULE
CRL
   58    59     1     0     0
SMALL
No Charge or Current Charge


@<TRIPOS>ATOM
      1 N1           0.7650     3.5330    -1.6800 ns         1 CRL      -0.487900
      2 C1           0.2980     2.2500    -1.5270 c          1 CRL       0.644100
      3 O1          -0.8230     2.0140    -1.1050 o          1 CRL      -0.642100
      4 N2           1.1900     1.2220    -1.8950 n          1 CRL      -0.405800
      5 C2           2.6270     1.5020    -2.2380 c6         1 CRL       0.063000
      6 C3           3.4090     0.3120    -2.8520 c6         1 CRL       0.141600
      7 O2           3.1270    -0.9070    -2.1430 os         1 CRL      -0.443000
      8 C4           1.7400    -1.2750    -2.2360 c6         1 CRL       0.141600
      9 C5           0.8440    -0.2000    -1.5710 c6         1 CRL       0.063000
     10 C6           0.0300     4.7590    -1.3050 c3         1 CRL       0.070700
     11 C7          -0.3000     5.6050    -2.5690 c          1 CRL       0.585100
     12 O3           0.2140     5.4060    -3.6630 o          1 CRL      -0.580100
     13 N3          -1.2180     6.6190    -2.3580 ns         1 CRL      -0.506900
     14 C8          -1.7410     7.5790    -3.3560 c6         1 CRL       0.199500
     15 C9          -2.3240     6.8540    -4.5250 c1         1 CRL       0.283900
     16 N4          -2.8090     6.3070    -5.4340 n1         1 CRL      -0.420000
     17 C10         -0.6040     8.5460    -3.8290 c6         1 CRL      -0.064900
     18 C11          0.0590     9.3540    -2.6700 c6         1 CRL      -0.299400
     19 S1          -1.1050    10.4440    -1.8060 s6         1 CRL       1.083000
     20 O4          -0.4940    10.8960    -0.5510 o          1 CRL      -0.514500
     21 O5          -1.6350    11.4230    -2.7630 o          1 CRL      -0.514500
     22 C12         -2.4050     9.2350    -1.4290 c6         1 CRL      -0.299400
     23 C13         -2.8740     8.4170    -2.6760 c6         1 CRL      -0.064900
     24 C14          0.8340     5.5980    -0.2750 c3         1 CRL      -0.090400
     25 SI1          1.0660     4.7860     1.3420 s6         1 CRL      -0.210000
     26 C15         -0.5210     4.1480     1.9470 c3         1 CRL      -0.103433
     27 C16          2.2550     3.4230     1.1960 c3         1 CRL      -0.103433
     28 C17          1.7040     6.0020     2.5250 c3         1 CRL      -0.103433
     29 HN1          1.6880     3.6340    -2.0780 hn         1 CRL       0.313500
     30 H21          3.1440     1.8200    -1.3210 h1         1 CRL       0.056450
     31 H22          2.6820     2.3370    -2.9500 h1         1 CRL       0.056450
     32 H31          3.1290     0.1870    -3.9080 h1         1 CRL       0.056200
     33 H32          4.4890     0.5140    -2.8120 h1         1 CRL       0.056200
     34 H41          1.5870    -2.2460    -1.7450 h1         1 CRL       0.056200
     35 H42          1.4670    -1.3860    -3.2960 h1         1 CRL       0.056200
     36 H51         -0.1990    -0.3960    -1.8580 h1         1 CRL       0.056450
     37 H52          0.9030    -0.3260    -0.4810 h1         1 CRL       0.056450
     38 H6          -0.9340     4.4860    -0.8570 h1         1 CRL       0.074700
     39 HN3         -1.6010     6.6730    -1.4220 hn         1 CRL       0.321500
     40 H101        -1.0020     9.2450    -4.5810 hc         1 CRL       0.083950
     41 H102         0.1750     7.9750    -4.3530 hc         1 CRL       0.083950
     42 H111         0.4810     8.6900    -1.9060 h1         1 CRL       0.106450
     43 H112         0.8530    10.0100    -3.0480 h1         1 CRL       0.106450
     44 H121        -3.2340     9.8190    -1.0070 h1         1 CRL       0.106450
     45 H122        -1.9960     8.5900    -0.6410 h1         1 CRL       0.106450
     46 H131        -3.6920     7.7480    -2.3730 hc         1 CRL       0.083950
     47 H132        -3.3180     9.1050    -3.4130 hc         1 CRL       0.083950
     48 H141         1.8300     5.8300    -0.6750 h1         1 CRL       0.067700
     49 H142         0.3170     6.5450    -0.0750 h1         1 CRL       0.067700
     50 H151        -0.7560     3.2210     1.4100 h1         1 CRL       0.057700
     51 H152        -0.4320     3.9500     3.0220 h1         1 CRL       0.057700
     52 H153        -1.2970     4.9010     1.7630 h1         1 CRL       0.057700
     53 H161         1.7100     2.5000     0.9630 h1         1 CRL       0.057700
     54 H162         2.9650     3.6580     0.3940 h1         1 CRL       0.057700
     55 H163         2.7860     3.3160     2.1500 h1         1 CRL       0.057700
     56 H171         1.8500     5.5070     3.4930 h1         1 CRL       0.057700
     57 H172         2.6590     6.3900     2.1490 h1         1 CRL       0.057700
     58 H173         0.9750     6.8160     2.6210 h1         1 CRL       0.057700
@<TRIPOS>BOND
     1     1     2 1   
     2     1    10 1   
     3     1    29 1   
     4     2     3 2   
     5     2     4 1   
     6     4     5 1   
     7     4     9 1   
     8     5     6 1   
     9     5    30 1   
    10     5    31 1   
    11     6     7 1   
    12     6    32 1   
    13     6    33 1   
    14     7     8 1   
    15     8     9 1   
    16     8    34 1   
    17     8    35 1   
    18     9    36 1   
    19     9    37 1   
    20    10    11 1   
    21    10    24 1   
    22    10    38 1   
    23    11    12 2   
    24    11    13 1   
    25    13    14 1   
    26    13    39 1   
    27    14    15 1   
    28    14    17 1   
    29    14    23 1   
    30    15    16 3   
    31    17    18 1   
    32    17    40 1   
    33    17    41 1   
    34    18    19 1   
    35    18    42 1   
    36    18    43 1   
    37    19    20 2   
    38    19    21 2   
    39    19    22 1   
    40    22    23 1   
    41    22    44 1   
    42    22    45 1   
    43    23    46 1   
    44    23    47 1   
    45    24    25 1   
    46    24    48 1   
    47    24    49 1   
    48    25    26 1   
    49    25    27 1   
    50    25    28 1   
    51    26    50 1   
    52    26    51 1   
    53    26    52 1   
    54    27    53 1   
    55    27    54 1   
    56    27    55 1   
    57    28    56 1   
    58    28    57 1   
    59    28    58 1   
@<TRIPOS>SUBSTRUCTURE
     1 CRL         1 TEMP              0 ****  ****    0 ROOT
