@<TRIPOS>MOLECULE
CRM
   44    45     1     0     0
SMALL
No Charge or Current Charge


@<TRIPOS>ATOM
      1 C2           3.0660    -0.2420     0.9110 c          1 CRM       0.628000
      2 O15          3.7210    -0.2620     1.9320 o          1 CRM      -0.576000
      3 N3           1.7960     0.2250     0.8640 ns         1 CRM      -0.545600
      4 C4           0.9710     0.2960    -0.2460 cc         1 CRM       0.207200
      5 N10         -0.3150     0.8260    -0.1440 n          1 CRM      -0.299000
      6 C17         -0.8140     1.3830     1.1470 c3         1 CRM       0.066000
      7 C18         -1.1500     0.2930     2.2050 c3         1 CRM       0.146300
      8 C20         -0.5790     0.6220     3.6210 c3         1 CRM       0.088300
      9 C22         -0.9060    -0.4850     4.6790 c3         1 CRM       0.130300
     10 C25         -0.3750    -0.1700     6.1030 c3         1 CRM       0.128600
     11 O26         -0.9540    -1.0970     7.0430 oh         1 CRM      -0.707000
     12 O23         -2.3280    -0.6680     4.8060 oh         1 CRM      -0.701000
     13 O21          0.8520     0.7950     3.5110 oh         1 CRM      -0.728000
     14 O19         -2.5700     0.1140     2.2890 oh         1 CRM      -0.700000
     15 C9          -1.1620     0.8580    -1.2640 c          1 CRM       0.430700
     16 O16         -2.3050     1.3060    -1.2070 o          1 CRM      -0.491000
     17 C8          -0.5390     0.3100    -2.5050 cc         1 CRM       0.372300
     18 C11         -1.4510     0.3450    -3.7260 c3         1 CRM      -0.083700
     19 C12         -0.8650    -0.2220    -5.0540 c3         1 CRM      -0.206400
     20 C13         -1.9050    -0.1160    -6.1800 c          1 CRM       0.716000
     21 O28         -1.9420     0.9150    -6.8340 o          1 CRM      -0.740500
     22 O27         -2.6890    -1.0410    -6.3280 o          1 CRM      -0.740500
     23 N7           0.7020    -0.1770    -2.6190 nd         1 CRM      -0.461300
     24 C5           1.4930    -0.1900    -1.4520 cd         1 CRM      -0.115600
     25 C6           2.8960    -0.7210    -1.4640 c          1 CRM       0.614200
     26 O14          3.4540    -1.1640    -2.4570 o          1 CRM      -0.483000
     27 N1           3.5390    -0.6830    -0.2680 ns         1 CRM      -0.475500
     28 H3           1.4480     0.5160     1.7780 hn         1 CRM       0.474000
     29 H171        -1.6970     2.0140     0.9890 h1         1 CRM       0.085200
     30 H172        -0.0470     2.0640     1.5370 h1         1 CRM       0.085200
     31 H18         -0.6890    -0.6530     1.8860 h1         1 CRM       0.039700
     32 H20         -1.0410     1.5620     3.9570 h1         1 CRM       0.078700
     33 H22         -0.4360    -1.4230     4.3480 h1         1 CRM       0.089700
     34 H251        -0.6400     0.8620     6.3730 h1         1 CRM       0.030200
     35 H252         0.7200    -0.2500     6.1090 h1         1 CRM       0.030200
     36 H26         -0.5160    -0.9410     7.9140 ho         1 CRM       0.507000
     37 H23         -2.4170    -1.0030     5.7370 ho         1 CRM       0.512000
     38 H21          1.1660     1.2680     4.3210 ho         1 CRM       0.516000
     39 H19         -2.7120    -0.2340     3.2180 ho         1 CRM       0.527000
     40 H111        -2.3690    -0.2080    -3.4920 hc         1 CRM       0.071700
     41 H112        -1.7580     1.3830    -3.9020 hc         1 CRM       0.071700
     42 H121         0.0100     0.3950    -5.2900 hc         1 CRM       0.034200
     43 H122        -0.6280    -1.2750    -4.8580 hc         1 CRM       0.034200
     44 H1           4.4820    -1.0360    -0.2610 hn         1 CRM       0.339500
@<TRIPOS>BOND
     1     1     2 2   
     2     1     3 1   
     3     1    27 1   
     4     3     4 1   
     5     3    28 1   
     6     4     5 1   
     7     4    24 2   
     8     5     6 1   
     9     5    15 1   
    10     6     7 1   
    11     6    29 1   
    12     6    30 1   
    13     7     8 1   
    14     7    14 1   
    15     7    31 1   
    16     8     9 1   
    17     8    13 1   
    18     8    32 1   
    19     9    10 1   
    20     9    12 1   
    21     9    33 1   
    22    10    11 1   
    23    10    34 1   
    24    10    35 1   
    25    11    36 1   
    26    12    37 1   
    27    13    38 1   
    28    14    39 1   
    29    15    16 2   
    30    15    17 1   
    31    17    18 1   
    32    17    23 2   
    33    18    19 1   
    34    18    40 1   
    35    18    41 1   
    36    19    20 1   
    37    19    42 1   
    38    19    43 1   
    39    20    21 1   
    40    20    22 1   
    41    23    24 1   
    42    24    25 1   
    43    25    26 2   
    44    25    27 1   
    45    27    44 1   
@<TRIPOS>SUBSTRUCTURE
     1 CRM         1 TEMP              0 ****  ****    0 ROOT
