@<TRIPOS>MOLECULE
CRM
   44    45     1     0     0
SMALL
bcc


@<TRIPOS>ATOM
      1 C2           3.2340    -0.0210     0.7580 c          1 CRM       0.837500
      2 O15          3.9680    -0.0250     1.7210 o          1 CRM      -0.651500
      3 N3           1.9270     0.4020     0.8460 ns         1 CRM      -0.499100
      4 C4           1.0710     0.4030    -0.2100 cc         1 CRM       0.207200
      5 N10         -0.2010     0.8410    -0.0360 n          1 CRM      -0.366000
      6 C17         -0.6530     1.3080     1.2730 c3         1 CRM       0.066000
      7 C18         -1.0370     0.1620     2.2220 c3         1 CRM       0.123100
      8 C20         -0.5970     0.5170     3.6580 c3         1 CRM       0.065100
      9 C22         -1.0070    -0.5340     4.7070 c3         1 CRM       0.107100
     10 C25         -0.5710    -0.1220     6.1050 c3         1 CRM       0.105400
     11 O26         -0.9030    -1.1590     6.9950 oh         1 CRM      -0.584800
     12 O23         -2.3960    -0.8050     4.6640 oh         1 CRM      -0.578800
     13 O21          0.8130     0.6820     3.6630 oh         1 CRM      -0.605800
     14 O19         -2.4140    -0.0500     2.0810 oh         1 CRM      -0.577800
     15 C9          -1.1060     0.8400    -1.0990 c          1 CRM       0.573200
     16 O16         -2.2460     1.2310    -0.9520 o          1 CRM      -0.566500
     17 C8          -0.5770     0.3490    -2.3810 cc         1 CRM       0.372300
     18 C11         -1.5320     0.3360    -3.5330 c3         1 CRM      -0.083700
     19 C12         -0.9480    -0.2090    -4.8220 c3         1 CRM      -0.206400
     20 C13         -1.9270    -0.2340    -6.0100 c          1 CRM       0.926600
     21 O28         -1.4410    -0.5930    -7.1030 o          1 CRM      -0.845800
     22 O27         -3.1130     0.0890    -5.8010 o          1 CRM      -0.845800
     23 N7           0.6370    -0.0480    -2.5100 nd         1 CRM      -0.461300
     24 C5           1.4790    -0.0310    -1.4490 cd         1 CRM      -0.115600
     25 C6           2.8440    -0.4820    -1.6350 c          1 CRM       0.756700
     26 O14          3.3120    -0.8780    -2.6820 o          1 CRM      -0.558500
     27 N1           3.6200    -0.4290    -0.4870 ns         1 CRM      -0.609500
     28 H3           1.6240     0.6780     1.7770 hn         1 CRM       0.360500
     29 H171        -1.5230     1.9410     1.1170 h1         1 CRM       0.085200
     30 H172         0.1160     1.9590     1.6890 h1         1 CRM       0.085200
     31 H18         -0.4750    -0.7450     1.9410 h1         1 CRM       0.039700
     32 H20         -1.0290     1.4870     3.9340 h1         1 CRM       0.078700
     33 H22         -0.5210    -1.4830     4.4440 h1         1 CRM       0.089700
     34 H251        -1.0770     0.8190     6.3670 h1         1 CRM       0.030200
     35 H252         0.5040     0.0860     6.1090 h1         1 CRM       0.030200
     36 H26         -0.6080    -0.9020     7.8730 ho         1 CRM       0.408000
     37 H23         -2.8740    -0.0740     5.0750 ho         1 CRM       0.413000
     38 H21          1.2330    -0.1660     3.8510 ho         1 CRM       0.417000
     39 H19         -2.7080    -0.5650     2.8470 ho         1 CRM       0.428000
     40 H111        -2.4140    -0.2410    -3.2430 hc         1 CRM       0.071700
     41 H112        -1.9040     1.3540    -3.6850 hc         1 CRM       0.071700
     42 H121        -0.0650     0.3670    -5.1140 hc         1 CRM       0.034200
     43 H122        -0.5780    -1.2270    -4.6660 hc         1 CRM       0.034200
     44 H1           4.5810    -0.7380    -0.5720 hn         1 CRM       0.339500
@<TRIPOS>BOND
     1     1     2 2   
     2     1     3 1   
     3     1    27 1   
     4     3     4 1   
     5     3    28 1   
     6     4     5 1   
     7     4    24 2   
     8     5     6 1   
     9     5    15 1   
    10     6     7 1   
    11     6    29 1   
    12     6    30 1   
    13     7     8 1   
    14     7    14 1   
    15     7    31 1   
    16     8     9 1   
    17     8    13 1   
    18     8    32 1   
    19     9    10 1   
    20     9    12 1   
    21     9    33 1   
    22    10    11 1   
    23    10    34 1   
    24    10    35 1   
    25    11    36 1   
    26    12    37 1   
    27    13    38 1   
    28    14    39 1   
    29    15    16 2   
    30    15    17 1   
    31    17    18 1   
    32    17    23 2   
    33    18    19 1   
    34    18    40 1   
    35    18    41 1   
    36    19    20 1   
    37    19    42 1   
    38    19    43 1   
    39    20    21 1   
    40    20    22 1   
    41    23    24 1   
    42    24    25 1   
    43    25    26 2   
    44    25    27 1   
    45    27    44 1   
@<TRIPOS>SUBSTRUCTURE
     1 CRM         1 TEMP              0 ****  ****    0 ROOT
