@<TRIPOS>MOLECULE
CRN
   17    16     1     0     0
SMALL
No Charge or Current Charge


@<TRIPOS>ATOM
      1 O9          -1.4420     0.1640     2.0410 o          1 CRN      -0.739500
      2 C7          -0.3650     0.4540     1.5340 c          1 CRN       0.706000
      3 O8           0.1330     1.5700     1.6280 o          1 CRN      -0.739500
      4 C5           0.4200    -0.6550     0.7460 c3         1 CRN       0.077800
      5 N1           0.6230    -0.4390    -0.7270 nh         1 CRN      -0.725600
      6 C4           1.9700    -0.6980    -1.2740 c3         1 CRN       0.218100
      7 C2          -0.4220    -0.2020    -1.5470 c2         1 CRN       0.820100
      8 N6          -1.4190    -0.9570    -1.6050 n2         1 CRN      -0.894100
      9 N3          -0.3410     0.9510    -2.1810 nv         1 CRN      -1.083200
     10 H51         -0.1200    -1.6000     0.8930 h1         1 CRN       0.040200
     11 H52          1.3880    -0.7690     1.2500 h1         1 CRN       0.040200
     12 H41          2.6980    -0.8880    -0.4740 h1         1 CRN       0.021033
     13 H42          1.9460    -1.5750    -1.9330 h1         1 CRN       0.021033
     14 H43          2.3210     0.1640    -1.8560 h1         1 CRN       0.021033
     15 HN6         -2.0680    -0.5460    -2.2810 hn         1 CRN       0.342400
     16 HN31        -1.2300     1.4280    -2.2270 hn         1 CRN       0.438000
     17 HN32         0.4020     1.5070    -1.7820 hn         1 CRN       0.438000
@<TRIPOS>BOND
     1     1     2 1   
     2     2     3 1   
     3     2     4 1   
     4     4     5 1   
     5     4    10 1   
     6     4    11 1   
     7     5     6 1   
     8     5     7 1   
     9     6    12 1   
    10     6    13 1   
    11     6    14 1   
    12     7     8 2   
    13     7     9 1   
    14     8    15 1   
    15     9    16 1   
    16     9    17 1   
@<TRIPOS>SUBSTRUCTURE
     1 CRN         1 TEMP              0 ****  ****    0 ROOT
