@<TRIPOS>MOLECULE
CRN
   17    16     1     0     0
SMALL
bcc


@<TRIPOS>ATOM
      1 O9          -0.5770     0.0710     2.6840 o          1 CRN      -0.844800
      2 C7          -0.0860     0.3140     1.5620 c          1 CRN       0.916600
      3 O8           0.1470     1.4320     1.0700 o          1 CRN      -0.844800
      4 C5           0.2070    -0.9240     0.6910 c3         1 CRN       0.077800
      5 N1           0.5340    -0.6340    -0.6850 nh         1 CRN      -0.725600
      6 C4           1.9000    -0.2600    -0.9670 c3         1 CRN       0.218100
      7 C2          -0.4960    -0.1980    -1.4770 c2         1 CRN       0.820100
      8 N6          -1.7110    -0.5000    -1.1720 n2         1 CRN      -0.894100
      9 N3          -0.1290     0.4430    -2.6350 nv         1 CRN      -0.972800
     10 H51         -0.6340    -1.6170     0.7370 h1         1 CRN       0.040200
     11 H52          1.0600    -1.4520     1.1280 h1         1 CRN       0.040200
     12 H41          2.5610    -0.8420    -0.3270 h1         1 CRN       0.021033
     13 H42          2.1730    -0.5040    -1.9940 h1         1 CRN       0.021033
     14 H43          2.1100     0.7990    -0.7890 h1         1 CRN       0.021033
     15 HN6         -2.3470    -0.1280    -1.8670 hn         1 CRN       0.342400
     16 HN31        -0.8910     0.8620    -3.1400 hn         1 CRN       0.382800
     17 HN32         0.6730     1.0470    -2.6130 hn         1 CRN       0.382800
@<TRIPOS>BOND
     1     1     2 1   
     2     2     3 1   
     3     2     4 1   
     4     4     5 1   
     5     4    10 1   
     6     4    11 1   
     7     5     6 1   
     8     5     7 1   
     9     6    12 1   
    10     6    13 1   
    11     6    14 1   
    12     7     8 2   
    13     7     9 1   
    14     8    15 1   
    15     9    16 1   
    16     9    17 1   
@<TRIPOS>SUBSTRUCTURE
     1 CRN         1 TEMP              0 ****  ****    0 ROOT
