@<TRIPOS>MOLECULE
CRO
   39    40     1     0     0
SMALL
bcc


@<TRIPOS>ATOM
      1 N1          -0.9480    -2.7060    -1.6520 n8         1 CRO      -0.900800
      2 CA1         -1.8500    -1.8010    -0.9720 c3         1 CRO       0.114200
      3 CB1         -2.4500    -2.3320     0.3590 c3         1 CRO       0.097100
      4 CG1         -3.3790    -3.5100     0.1110 c3         1 CRO      -0.126100
      5 OG1         -1.4350    -2.6410     1.2860 oh         1 CRO      -0.561800
      6 C1          -1.1410    -0.5120    -0.7100 cc         1 CRO       0.507900
      7 N2           0.1360    -0.4210    -0.5510 nd         1 CRO      -0.658300
      8 N3          -1.8080     0.6870    -0.5920 n          1 CRO      -0.374300
      9 C2          -0.8820     1.6590    -0.3000 c          1 CRO       0.684700
     10 O2          -1.1170     2.8400    -0.1300 o          1 CRO      -0.578500
     11 CA2          0.3980     0.9160    -0.2880 cd         1 CRO       0.036400
     12 CA3         -3.2230     0.9560    -0.6270 c3         1 CRO      -0.051000
     13 C3          -3.8460     1.1880     0.7690 c          1 CRO       0.921600
     14 O3          -3.1490     0.9130     1.7580 o          1 CRO      -0.817800
     15 CB2          1.5860     1.5110    -0.0630 ce         1 CRO      -0.056200
     16 CG2          2.9130     0.9380    -0.0240 ca         1 CRO      -0.068800
     17 CD1          3.1890    -0.4280    -0.2020 ca         1 CRO      -0.071500
     18 CD2          3.9970     1.7940     0.2040 ca         1 CRO      -0.071500
     19 CE1          4.4820    -0.9060    -0.1550 ca         1 CRO      -0.207000
     20 CE2          5.2970     1.3260     0.2520 ca         1 CRO      -0.207000
     21 CZ           5.5490    -0.0330     0.0710 ca         1 CRO       0.127100
     22 OH           6.7860    -0.5520     0.1030 oh         1 CRO      -0.503100
     23 OXT         -5.0150     1.6160     0.7440 o          1 CRO      -0.817800
     24 HN11        -0.1090    -2.8630    -1.1090 hn         1 CRO       0.349800
     25 H2          -1.3910    -3.6010    -1.8070 hn         1 CRO       0.349800
     26 HA1         -2.6900    -1.6040    -1.6470 h1         1 CRO       0.078700
     27 HB1         -3.0230    -1.5260     0.8230 h1         1 CRO       0.139700
     28 HG11        -2.8560    -4.3540    -0.3460 hc         1 CRO       0.035367
     29 HG12        -3.8120    -3.8590     1.0490 hc         1 CRO       0.035367
     30 HG13        -4.1980    -3.2280    -0.5520 hc         1 CRO       0.035367
     31 HOG1        -0.9520    -3.4090     0.9640 ho         1 CRO       0.374000
     32 HA31        -3.3990     1.8260    -1.2610 h1         1 CRO       0.038700
     33 HA32        -3.7330     0.1210    -1.1100 h1         1 CRO       0.038700
     34 HB2          1.5370     2.5820     0.1120 ha         1 CRO       0.134000
     35 HD1          2.3760    -1.1180    -0.3780 ha         1 CRO       0.149000
     36 HD2          3.8200     2.8530     0.3440 ha         1 CRO       0.149000
     37 HE1          4.6760    -1.9630    -0.2930 ha         1 CRO       0.128500
     38 HE2          6.1130     2.0160     0.4280 ha         1 CRO       0.128500
     39 HOH          7.4410     0.1380     0.2600 ho         1 CRO       0.417000
@<TRIPOS>BOND
     1     1     2 1   
     2     1    24 1   
     3     1    25 1   
     4     2     3 1   
     5     2     6 1   
     6     2    26 1   
     7     3     4 1   
     8     3     5 1   
     9     3    27 1   
    10     4    28 1   
    11     4    29 1   
    12     4    30 1   
    13     5    31 1   
    14     6     7 2   
    15     6     8 1   
    16     7    11 1   
    17     8     9 1   
    18     8    12 1   
    19     9    10 2   
    20     9    11 1   
    21    11    15 2   
    22    12    13 1   
    23    12    32 1   
    24    12    33 1   
    25    13    14 1   
    26    13    23 1   
    27    15    16 1   
    28    15    34 1   
    29    16    17 ar  
    30    16    18 ar  
    31    17    19 ar  
    32    17    35 1   
    33    18    20 ar  
    34    18    36 1   
    35    19    21 ar  
    36    19    37 1   
    37    20    21 ar  
    38    20    38 1   
    39    21    22 1   
    40    22    39 1   
@<TRIPOS>SUBSTRUCTURE
     1 CRO         1 TEMP              0 ****  ****    0 ROOT
