@<TRIPOS>MOLECULE
CRO
   39    40     1     0     0
SMALL
No Charge or Current Charge


@<TRIPOS>ATOM
      1 N1          -1.0290    -2.7040    -1.9310 n8         1 CRO      -0.900800
      2 CA1         -1.8340    -1.7780    -1.0550 c3         1 CRO       0.114200
      3 CB1         -2.3530    -2.4950     0.2350 c3         1 CRO       0.097100
      4 CG1         -3.3770    -3.6140    -0.0610 c3         1 CRO      -0.126100
      5 OG1         -1.2630    -3.0640     0.9780 oh         1 CRO      -0.561800
      6 C1          -1.1360    -0.4470    -0.7190 cc         1 CRO       0.507900
      7 N2           0.1990    -0.3240    -0.6310 nd         1 CRO      -0.658300
      8 N3          -1.8260     0.7360    -0.4810 n          1 CRO      -0.374300
      9 C2          -0.9360     1.7420    -0.1950 c          1 CRO       0.684700
     10 O2          -1.1800     2.9130     0.0770 o          1 CRO      -0.578500
     11 CA2          0.3490     1.0240    -0.3090 cd         1 CRO       0.036400
     12 CA3         -3.3080     0.9450    -0.4410 c3         1 CRO      -0.051000
     13 C3          -3.8830     1.3530     0.9420 c          1 CRO       0.921600
     14 O3          -3.5380     0.7100     1.9270 o          1 CRO      -0.817800
     15 CB2          1.5850     1.6070    -0.1030 ce         1 CRO      -0.056200
     16 CG2          2.9510     1.0080     0.0080 ca         1 CRO      -0.068800
     17 CD1          3.1550    -0.3160     0.4540 ca         1 CRO      -0.071500
     18 CD2          4.0720     1.8010    -0.3110 ca         1 CRO      -0.071500
     19 CE1          4.4570    -0.8370     0.5590 ca         1 CRO      -0.207000
     20 CE2          5.3730     1.2760    -0.2060 ca         1 CRO      -0.207000
     21 CZ           5.5630    -0.0440     0.2270 ca         1 CRO       0.127100
     22 OH           6.8190    -0.5570     0.3330 oh         1 CRO      -0.503100
     23 OXT         -4.6610     2.2980     1.0010 o          1 CRO      -0.817800
     24 HN11        -0.1090    -2.8440    -1.5010 hn         1 CRO       0.349800
     25 H2          -1.4660    -3.6310    -1.9480 hn         1 CRO       0.349800
     26 HA1         -2.7220    -1.5200    -1.6460 h1         1 CRO       0.078700
     27 HB1         -2.8660    -1.7390     0.8500 h1         1 CRO       0.139700
     28 HG11        -2.9310    -4.4240    -0.6500 hc         1 CRO       0.035367
     29 HG12        -3.7560    -4.0420     0.8750 hc         1 CRO       0.035367
     30 HG13        -4.2330    -3.2140    -0.6180 hc         1 CRO       0.035367
     31 HOG1        -0.9210    -3.8200     0.4580 ho         1 CRO       0.374000
     32 HA31        -3.5630     1.7310    -1.1630 h1         1 CRO       0.038700
     33 HA32        -3.8320     0.0340    -0.7510 h1         1 CRO       0.038700
     34 HB2          1.5550     2.6830     0.0730 ha         1 CRO       0.134000
     35 HD1          2.3100    -0.9410     0.7330 ha         1 CRO       0.149000
     36 HD2          3.9330     2.8270    -0.6480 ha         1 CRO       0.149000
     37 HE1          4.6060    -1.8580     0.9030 ha         1 CRO       0.128500
     38 HE2          6.2260     1.9010    -0.4610 ha         1 CRO       0.128500
     39 HOH          7.4580     0.1350     0.0640 ho         1 CRO       0.417000
@<TRIPOS>BOND
     1     1     2 1   
     2     1    24 1   
     3     1    25 1   
     4     2     3 1   
     5     2     6 1   
     6     2    26 1   
     7     3     4 1   
     8     3     5 1   
     9     3    27 1   
    10     4    28 1   
    11     4    29 1   
    12     4    30 1   
    13     5    31 1   
    14     6     7 2   
    15     6     8 1   
    16     7    11 1   
    17     8     9 1   
    18     8    12 1   
    19     9    10 2   
    20     9    11 1   
    21    11    15 2   
    22    12    13 1   
    23    12    32 1   
    24    12    33 1   
    25    13    14 1   
    26    13    23 1   
    27    15    16 1   
    28    15    34 1   
    29    16    17 ar  
    30    16    18 ar  
    31    17    19 ar  
    32    17    35 1   
    33    18    20 ar  
    34    18    36 1   
    35    19    21 ar  
    36    19    37 1   
    37    20    21 ar  
    38    20    38 1   
    39    21    22 1   
    40    22    39 1   
@<TRIPOS>SUBSTRUCTURE
     1 CRO         1 TEMP              0 ****  ****    0 ROOT
