@<TRIPOS>MOLECULE
CRP
   38    39     1     0     0
SMALL
abcg2


@<TRIPOS>ATOM
      1 CL0          1.4840     0.5530     6.2970 cl         1 CRP      -0.200000
      2 C1          -0.8270     0.3140     2.4250 ca         1 CRP      -0.102300
      3 C2          -0.4350    -0.8410     3.0940 ca         1 CRP      -0.089500
      4 C3           0.2730    -0.7800     4.2850 ca         1 CRP      -0.105500
      5 C4           0.5990     0.4600     4.8090 ca         1 CRP       0.125000
      6 C5           0.2270     1.6280     4.1630 ca         1 CRP      -0.105500
      7 C6          -0.4850     1.5460     2.9750 ca         1 CRP      -0.089500
      8 C7          -1.5660     0.2080     1.1100 c3         1 CRP       0.160000
      9 C8          -2.7050     1.2100     0.9620 c3         1 CRP      -0.106100
     10 N           -0.6050     0.3360     0.0240 ns         1 CRP      -0.504900
     11 C           -0.6330    -0.4090    -1.0910 c          1 CRP       0.633100
     12 O           -1.4560    -1.2810    -1.3100 o          1 CRP      -0.577100
     13 C9           0.5160    -0.1400    -2.0380 cx         1 CRP      -0.179000
     14 C10          0.1710     0.3360    -3.4110 cx         1 CRP       0.278000
     15 C11          0.7890     1.2970    -2.4540 cx         1 CRP      -0.103700
     16 C12          2.1680     1.8710    -2.6350 c3         1 CRP      -0.066100
     17 C13          1.6710    -1.1050    -1.8170 c3         1 CRP      -0.037400
     18 C14          1.3430    -2.5670    -2.0930 c3         1 CRP      -0.088100
     19 CL1          1.1010    -0.2390    -4.7840 cl         1 CRP      -0.177500
     20 CL2         -1.5110     0.5860    -3.8540 cl         1 CRP      -0.177500
     21 H3           0.5630    -1.6890     4.7950 ha         1 CRP       0.131500
     22 H5           0.4810     2.5930     4.5800 ha         1 CRP       0.131500
     23 H6          -0.7710     2.4680     2.4850 ha         1 CRP       0.120500
     24 H7          -1.9830    -0.7970     1.0400 h1         1 CRP       0.084700
     25 H8'1        -2.3430     2.2380     0.9350 hc         1 CRP       0.045700
     26 H8'2        -3.2460     1.0250     0.0340 hc         1 CRP       0.045700
     27 H8'3        -3.4070     1.1160     1.7900 hc         1 CRP       0.045700
     28 HN           0.0910     1.0610     0.1040 hn         1 CRP       0.315500
     29 H1           0.0790     2.0250    -2.0690 hc         1 CRP       0.091700
     30 H41          2.1180     2.7530    -3.2740 hc         1 CRP       0.049367
     31 H42          2.5710     2.1810    -1.6710 hc         1 CRP       0.049367
     32 H43          2.8720     1.1760    -3.0850 hc         1 CRP       0.049367
     33 H51          2.0040    -0.9860    -0.7830 hc         1 CRP       0.049200
     34 H52          2.5170    -0.8040    -2.4330 hc         1 CRP       0.049200
     35 H61          2.2390    -3.1730    -1.9630 hc         1 CRP       0.044367
     36 H62          0.5840    -2.9550    -1.4180 hc         1 CRP       0.044367
     37 H63          0.9910    -2.7110    -3.1140 hc         1 CRP       0.044367
     38 H2          -0.6860    -1.8120     2.6830 ha         1 CRP       0.120500
@<TRIPOS>BOND
     1     1     5 1   
     2     2     3 ar  
     3     2     7 ar  
     4     2     8 1   
     5     3     4 ar  
     6     3    38 1   
     7     4     5 ar  
     8     4    21 1   
     9     5     6 ar  
    10     6     7 ar  
    11     6    22 1   
    12     7    23 1   
    13     8     9 1   
    14     8    10 1   
    15     8    24 1   
    16     9    25 1   
    17     9    26 1   
    18     9    27 1   
    19    10    11 1   
    20    10    28 1   
    21    11    12 2   
    22    11    13 1   
    23    13    14 1   
    24    13    15 1   
    25    13    17 1   
    26    14    15 1   
    27    14    19 1   
    28    14    20 1   
    29    15    16 1   
    30    15    29 1   
    31    16    30 1   
    32    16    31 1   
    33    16    32 1   
    34    17    18 1   
    35    17    33 1   
    36    17    34 1   
    37    18    35 1   
    38    18    36 1   
    39    18    37 1   
@<TRIPOS>SUBSTRUCTURE
     1 CRP         1 TEMP              0 ****  ****    0 ROOT
