@<TRIPOS>MOLECULE
CRP
   38    39     1     0     0
SMALL
No Charge or Current Charge


@<TRIPOS>ATOM
      1 Cl0          1.3120     1.0570     6.5010 cl         1 CRP      -0.200000
      2 C1          -0.7660     0.2520     2.4990 ca         1 CRP      -0.102300
      3 C2          -0.6060    -0.7850     3.4410 ca         1 CRP      -0.089500
      4 C3           0.0310    -0.5360     4.6700 ca         1 CRP      -0.105500
      5 C4           0.5150     0.7480     4.9640 ca         1 CRP       0.125000
      6 C5           0.3650     1.7860     4.0310 ca         1 CRP      -0.105500
      7 C6          -0.2720     1.5400     2.8010 ca         1 CRP      -0.089500
      8 C7          -1.4520    -0.0300     1.1640 c3         1 CRP       0.160000
      9 C8          -2.6820     0.8730     0.9340 c3         1 CRP      -0.106100
     10 N           -0.4900     0.1040     0.0760 ns         1 CRP      -0.504900
     11 C           -0.6300    -0.4510    -1.1740 c          1 CRP       0.633100
     12 O           -1.5760    -1.1650    -1.4750 o          1 CRP      -0.577100
     13 C9           0.5100    -0.1330    -2.1180 cx         1 CRP      -0.179000
     14 C10          0.1380     0.5390    -3.4330 cx         1 CRP       0.278000
     15 C11          0.7960     1.3490    -2.3350 cx         1 CRP      -0.103700
     16 C12          2.2090     1.9200    -2.4630 c3         1 CRP      -0.066100
     17 C13          1.6660    -1.1490    -2.0470 c3         1 CRP      -0.037400
     18 C14          1.2540    -2.5910    -2.4090 c3         1 CRP      -0.088100
     19 Cl1          1.0270     0.1520    -4.9440 cl         1 CRP      -0.177500
     20 Cl2         -1.5600     0.9310    -3.8560 cl         1 CRP      -0.177500
     21 H3           0.1500    -1.3390     5.3940 ha         1 CRP       0.131500
     22 H5           0.7430     2.7790     4.2590 ha         1 CRP       0.131500
     23 H6          -0.3770     2.3520     2.0850 ha         1 CRP       0.120500
     24 H7          -1.8050    -1.0710     1.1730 h1         1 CRP       0.084700
     25 H8'1        -2.3910     1.9260     0.8430 hc         1 CRP       0.045700
     26 H8'2        -3.2090     0.5850     0.0170 hc         1 CRP       0.045700
     27 H8'3        -3.3850     0.7800     1.7710 hc         1 CRP       0.045700
     28 HN           0.3470     0.6480     0.2380 hn         1 CRP       0.315500
     29 H1           0.1430     2.0510    -1.8210 hc         1 CRP       0.091700
     30 H41          2.1760     2.9260    -2.8990 hc         1 CRP       0.049367
     31 H42          2.6820     2.0020    -1.4770 hc         1 CRP       0.049367
     32 H43          2.8630     1.3130    -3.0980 hc         1 CRP       0.049367
     33 H51          2.0860    -1.1510    -1.0330 hc         1 CRP       0.049200
     34 H52          2.4890    -0.8650    -2.7110 hc         1 CRP       0.049200
     35 H61          2.1320    -3.2490    -2.4060 hc         1 CRP       0.044367
     36 H62          0.5320    -2.9910    -1.6870 hc         1 CRP       0.044367
     37 H63          0.8040    -2.6280    -3.4080 hc         1 CRP       0.044367
     38 H2          -0.9750    -1.7850     3.2240 ha         1 CRP       0.120500
@<TRIPOS>BOND
     1     1     5 1   
     2     2     3 ar  
     3     2     7 ar  
     4     2     8 1   
     5     3     4 ar  
     6     3    38 1   
     7     4     5 ar  
     8     4    21 1   
     9     5     6 ar  
    10     6     7 ar  
    11     6    22 1   
    12     7    23 1   
    13     8     9 1   
    14     8    10 1   
    15     8    24 1   
    16     9    25 1   
    17     9    26 1   
    18     9    27 1   
    19    10    11 1   
    20    10    28 1   
    21    11    12 2   
    22    11    13 1   
    23    13    14 1   
    24    13    15 1   
    25    13    17 1   
    26    14    15 1   
    27    14    19 1   
    28    14    20 1   
    29    15    16 1   
    30    15    29 1   
    31    16    30 1   
    32    16    31 1   
    33    16    32 1   
    34    17    18 1   
    35    17    33 1   
    36    17    34 1   
    37    18    35 1   
    38    18    36 1   
    39    18    37 1   
@<TRIPOS>SUBSTRUCTURE
     1 CRP         1 TEMP              0 ****  ****    0 ROOT
