@<TRIPOS>MOLECULE
CRQ
   40    41     1     0     0
SMALL
bcc


@<TRIPOS>ATOM
      1 N            1.2600    -1.7940    -1.2480 n2         1 CRQ      -0.757100
      2 CA1          1.6040    -0.8770    -0.4460 ce         1 CRQ       0.442000
      3 CB1          2.9480    -0.9080     0.2250 c3         1 CRQ      -0.113700
      4 CG1          3.6540    -2.2410     0.0670 c3         1 CRQ      -0.146400
      5 C1           0.6300     0.1820    -0.0630 cc         1 CRQ       0.430600
      6 N2          -0.6320    -0.0900    -0.0560 nd         1 CRQ      -0.681300
      7 N3           0.9340     1.4490     0.3840 n          1 CRQ      -0.360300
      8 C2          -0.2610     2.0870     0.6620 c          1 CRQ       0.671700
      9 O2          -0.3880     3.2390     1.0280 o          1 CRQ      -0.596500
     10 CA2         -1.2760     1.0520     0.3880 cd         1 CRQ       0.028400
     11 CA3          2.1790     2.1620     0.2210 c3         1 CRQ      -0.069000
     12 CB2         -2.6000     1.2470     0.5650 ce         1 CRQ      -0.045200
     13 CG2         -3.7010     0.3410     0.3390 ca         1 CRQ      -0.079800
     14 CD1         -3.5580    -0.9720    -0.1360 ca         1 CRQ      -0.067500
     15 CD2         -5.0000     0.7970     0.6090 ca         1 CRQ      -0.067500
     16 CE1         -4.6580    -1.7820    -0.3280 ca         1 CRQ      -0.208000
     17 CE2         -6.1070    -0.0050     0.4210 ca         1 CRQ      -0.208000
     18 CZ          -5.9430    -1.3080    -0.0510 ca         1 CRQ       0.133100
     19 OH          -7.0410    -2.0570    -0.2210 oh         1 CRQ      -0.502100
     20 OE1          5.5350    -1.2700     1.2200 o          1 CRQ      -0.601100
     21 C            2.6860     2.1690    -1.2400 c          1 CRQ       0.919600
     22 O            2.0250     1.5210    -2.0680 o          1 CRQ      -0.817300
     23 CD3          5.0160    -2.2640     0.7310 c          1 CRQ       0.666100
     24 NE1          5.6120    -3.4670     0.7280 nt         1 CRQ      -0.690000
     25 OXT          3.7230     2.8270    -1.4240 o          1 CRQ      -0.817300
     26 HN1          0.3140    -1.6350    -1.5890 hn         1 CRQ       0.402400
     27 HB11         3.5750    -0.1170    -0.1900 hc         1 CRQ       0.085200
     28 HB12         2.8190    -0.6650     1.2840 hc         1 CRQ       0.085200
     29 HG11         3.0440    -3.0500     0.4770 hc         1 CRQ       0.064700
     30 HG12         3.7830    -2.4790    -0.9920 hc         1 CRQ       0.064700
     31 HA31         2.0030     3.1880     0.5470 h1         1 CRQ       0.055200
     32 HA32         2.9470     1.7620     0.8860 h1         1 CRQ       0.055200
     33 HB1         -2.8770     2.2320     0.9290 ha         1 CRQ       0.133000
     34 HD1         -2.5750    -1.3590    -0.3570 ha         1 CRQ       0.150000
     35 HD2         -5.1430     1.8070     0.9750 ha         1 CRQ       0.150000
     36 HE1         -4.5200    -2.7930    -0.6950 ha         1 CRQ       0.130500
     37 HE2         -7.0990     0.3700     0.6360 ha         1 CRQ       0.130500
     38 HH          -6.8090    -2.9310    -0.5550 ho         1 CRQ       0.421000
     39 HE11         5.1750    -4.2760     0.3220 hn         1 CRQ       0.304000
     40 HE12         6.5280    -3.5840     1.1270 hn         1 CRQ       0.304000
@<TRIPOS>BOND
     1     1     2 2   
     2     1    26 1   
     3     2     3 1   
     4     2     5 1   
     5     3     4 1   
     6     3    27 1   
     7     3    28 1   
     8     4    23 1   
     9     4    29 1   
    10     4    30 1   
    11     5     6 2   
    12     5     7 1   
    13     6    10 1   
    14     7     8 1   
    15     7    11 1   
    16     8     9 2   
    17     8    10 1   
    18    10    12 2   
    19    11    21 1   
    20    11    31 1   
    21    11    32 1   
    22    12    13 1   
    23    12    33 1   
    24    13    14 ar  
    25    13    15 ar  
    26    14    16 ar  
    27    14    34 1   
    28    15    17 ar  
    29    15    35 1   
    30    16    18 ar  
    31    16    36 1   
    32    17    18 ar  
    33    17    37 1   
    34    18    19 1   
    35    19    38 1   
    36    20    23 2   
    37    21    22 1   
    38    21    25 1   
    39    23    24 1   
    40    24    39 1   
    41    24    40 1   
@<TRIPOS>SUBSTRUCTURE
     1 CRQ         1 TEMP              0 ****  ****    0 ROOT
