@<TRIPOS>MOLECULE
CRQ
   40    41     1     0     0
SMALL
No Charge or Current Charge


@<TRIPOS>ATOM
      1 N            1.5970    -0.9290    -2.1120 n2         1 CRQ      -0.757100
      2 CA1          1.7880    -0.4000    -0.9370 ce         1 CRQ       0.442000
      3 CB1          3.0320    -0.7260    -0.1170 c3         1 CRQ      -0.113700
      4 CG1          3.3170    -2.2480     0.0330 c3         1 CRQ      -0.146400
      5 C1           0.7200     0.4140    -0.2810 cc         1 CRQ       0.430600
      6 N2          -0.5700     0.0370    -0.2140 nd         1 CRQ      -0.681300
      7 N3           0.9700     1.6800     0.2500 n          1 CRQ      -0.293300
      8 C2          -0.2000     2.2020     0.7540 c          1 CRQ       0.529200
      9 O2          -0.3790     3.2870     1.2960 o          1 CRQ      -0.521000
     10 CA2         -1.1540     1.1180     0.4420 cd         1 CRQ       0.028400
     11 CA3          2.2390     2.4650     0.1830 c3         1 CRQ      -0.069000
     12 CB2         -2.5040     1.1650     0.7340 ce         1 CRQ      -0.095200
     13 CG2         -3.5980     0.1750     0.4890 ca         1 CRQ      -0.079800
     14 CD1         -3.3620    -1.2170     0.4980 ca         1 CRQ      -0.049500
     15 CD2         -4.9100     0.6440     0.2750 ca         1 CRQ      -0.049500
     16 CE1         -4.4180    -2.1200     0.2790 ca         1 CRQ      -0.190000
     17 CE2         -5.9630    -0.2610     0.0550 ca         1 CRQ      -0.190000
     18 CZ          -5.7170    -1.6400     0.0550 ca         1 CRQ       0.133100
     19 OH          -6.7430    -2.5100    -0.1570 oh         1 CRQ      -0.541100
     20 OE1          5.2530    -1.8000     1.4410 o          1 CRQ      -0.601100
     21 C            2.7700     2.7200    -1.2450 c          1 CRQ       0.709000
     22 O            1.9910     3.1500    -2.0820 o          1 CRQ      -0.712000
     23 CD3          4.5410    -2.6160     0.8810 c          1 CRQ       0.599100
     24 NE1          4.8050    -3.9360     0.9870 nt         1 CRQ      -0.623000
     25 OXT          3.9300     2.4260    -1.4870 o          1 CRQ      -0.712000
     26 HN1          0.6200    -0.7520    -2.3970 hn         1 CRQ       0.402400
     27 HB11         3.9040    -0.2460    -0.5760 hc         1 CRQ       0.085200
     28 HB12         2.9400    -0.3020     0.8900 hc         1 CRQ       0.085200
     29 HG11         2.4540    -2.7860     0.4430 hc         1 CRQ       0.064700
     30 HG12         3.4260    -2.7450    -0.9390 hc         1 CRQ       0.064700
     31 HA31         2.0870     3.4480     0.6450 h1         1 CRQ       0.055200
     32 HA32         3.0160     1.9550     0.7620 h1         1 CRQ       0.055200
     33 HB1         -2.8340     2.0980     1.1920 ha         1 CRQ       0.183000
     34 HD1         -2.3650    -1.6050     0.6890 ha         1 CRQ       0.132000
     35 HD2         -5.1130     1.7130     0.2730 ha         1 CRQ       0.132000
     36 HE1         -4.2190    -3.1890     0.2900 ha         1 CRQ       0.112500
     37 HE2         -6.9710     0.1110    -0.1140 ha         1 CRQ       0.112500
     38 HH          -6.3860    -3.4230    -0.1210 ho         1 CRQ       0.460000
     39 HE11         4.2130    -4.6090     0.5220 hn         1 CRQ       0.304000
     40 HE12         5.5980    -4.2380     1.5330 hn         1 CRQ       0.304000
@<TRIPOS>BOND
     1     1     2 2   
     2     1    26 1   
     3     2     3 1   
     4     2     5 1   
     5     3     4 1   
     6     3    27 1   
     7     3    28 1   
     8     4    23 1   
     9     4    29 1   
    10     4    30 1   
    11     5     6 2   
    12     5     7 1   
    13     6    10 1   
    14     7     8 1   
    15     7    11 1   
    16     8     9 2   
    17     8    10 1   
    18    10    12 2   
    19    11    21 1   
    20    11    31 1   
    21    11    32 1   
    22    12    13 1   
    23    12    33 1   
    24    13    14 ar  
    25    13    15 ar  
    26    14    16 ar  
    27    14    34 1   
    28    15    17 ar  
    29    15    35 1   
    30    16    18 ar  
    31    16    36 1   
    32    17    18 ar  
    33    17    37 1   
    34    18    19 1   
    35    19    38 1   
    36    20    23 2   
    37    21    22 1   
    38    21    25 1   
    39    23    24 1   
    40    24    39 1   
    41    24    40 1   
@<TRIPOS>SUBSTRUCTURE
     1 CRQ         1 TEMP              0 ****  ****    0 ROOT
