@<TRIPOS>MOLECULE
CRR
   42    46     1     0     0
SMALL
No Charge or Current Charge


@<TRIPOS>ATOM
      1 C5           2.8930    -0.9450    -0.0830 ca         1 CRR      -0.060300
      2 C4           3.6100    -0.4990    -1.2090 ca         1 CRR       0.006000
      3 C3           4.8220    -1.1510    -1.5330 ca         1 CRR      -0.185000
      4 C2           5.2730    -2.2490    -0.7660 ca         1 CRR      -0.110000
      5 C1           4.5000    -2.7210     0.3130 ca         1 CRR      -0.165500
      6 C20          3.3100    -2.0480     0.6150 ca         1 CRR      -0.051700
      7 N3           2.3530    -2.3940     1.5420 na         1 CRR      -0.247700
      8 C19          1.2460    -1.5270     1.4440 cc         1 CRR      -0.211600
      9 C6           1.5930    -0.5750     0.4840 cd         1 CRR       0.077600
     10 C7           0.7010     0.5280     0.0960 cd         1 CRR      -0.145800
     11 C8           1.1560     1.6800    -0.5290 cc         1 CRR      -0.212600
     12 C36          2.5000     2.3280    -0.4700 c          1 CRR       0.729600
     13 O39          3.3240     1.9800     0.3610 o          1 CRR      -0.736250
     14 O40          2.6750     3.3040    -1.1860 o          1 CRR      -0.736250
     15 N1           0.0300     2.2450    -1.1260 na         1 CRR      -0.046000
     16 C9          -1.1500     1.6440    -0.6900 cc         1 CRR      -0.212600
     17 C35         -2.5200     2.1850    -0.9530 c          1 CRR       0.729600
     18 O37         -3.4960     1.7760    -0.3480 o          1 CRR      -0.736250
     19 O38         -2.5950     3.1240    -1.7330 o          1 CRR      -0.736250
     20 C10         -0.7380     0.5760     0.0960 cd         1 CRR      -0.145800
     21 C11         -1.6670    -0.3710     0.6760 cd         1 CRR       0.077600
     22 C12         -2.8140    -1.0280     0.0880 ca         1 CRR      -0.060300
     23 C13         -3.2380    -1.1650    -1.2420 ca         1 CRR       0.006000
     24 C14         -4.3930    -1.9420    -1.4830 ca         1 CRR      -0.185000
     25 C15         -5.0750    -2.5650    -0.4090 ca         1 CRR      -0.110000
     26 C16         -4.6060    -2.4230     0.9150 ca         1 CRR      -0.165500
     27 C17         -3.4610    -1.6440     1.1240 ca         1 CRR      -0.051700
     28 N2          -2.7940    -1.3750     2.3080 na         1 CRR      -0.247700
     29 C18         -1.6720    -0.5540     2.0540 cc         1 CRR      -0.211600
     30 H4           3.2400     0.3000    -1.8420 ha         1 CRR       0.136500
     31 H3           5.4010    -0.8160    -2.3900 ha         1 CRR       0.087000
     32 H2           6.2010    -2.7500    -1.0290 ha         1 CRR       0.073000
     33 H1           4.8100    -3.5950     0.8800 ha         1 CRR       0.079000
     34 HN3          2.4270    -3.1820     2.1790 hn         1 CRR       0.317000
     35 H19          0.3880    -1.6640     2.0760 h4         1 CRR       0.195000
     36 HN1          0.0540     3.0900    -1.6900 hn         1 CRR       0.371000
     37 H13         -2.6930    -0.6910    -2.0550 ha         1 CRR       0.136500
     38 H14         -4.7560    -2.0670    -2.5000 ha         1 CRR       0.087000
     39 H15         -5.9610    -3.1640    -0.6060 ha         1 CRR       0.073000
     40 H16         -5.1150    -2.9070     1.7450 ha         1 CRR       0.079000
     41 HN2         -3.0940    -1.6940     3.2250 hn         1 CRR       0.317000
     42 H18         -1.0380    -0.1420     2.8310 h4         1 CRR       0.195000
@<TRIPOS>BOND
     1     1     2 ar  
     2     1     6 ar  
     3     1     9 1   
     4     2     3 ar  
     5     2    30 1   
     6     3     4 ar  
     7     3    31 1   
     8     4     5 ar  
     9     4    32 1   
    10     5     6 ar  
    11     5    33 1   
    12     6     7 1   
    13     7     8 1   
    14     7    34 1   
    15     8     9 2   
    16     8    35 1   
    17     9    10 1   
    18    10    11 2   
    19    10    20 1   
    20    11    12 1   
    21    11    15 1   
    22    12    13 1   
    23    12    14 1   
    24    15    16 1   
    25    15    36 1   
    26    16    17 1   
    27    16    20 2   
    28    17    18 1   
    29    17    19 1   
    30    20    21 1   
    31    21    22 1   
    32    21    29 2   
    33    22    23 ar  
    34    22    27 ar  
    35    23    24 ar  
    36    23    37 1   
    37    24    25 ar  
    38    24    38 1   
    39    25    26 ar  
    40    25    39 1   
    41    26    27 ar  
    42    26    40 1   
    43    27    28 1   
    44    28    29 1   
    45    28    41 1   
    46    29    42 1   
@<TRIPOS>SUBSTRUCTURE
     1 CRR         1 TEMP              0 ****  ****    0 ROOT
