@<TRIPOS>MOLECULE
CRR
   42    46     1     0     0
SMALL
abcg2


@<TRIPOS>ATOM
      1 C5           2.4360    -1.0190    -0.0100 ca         1 CRR      -0.060300
      2 C4           2.7600    -1.0470    -1.3680 ca         1 CRR       0.006000
      3 C3           3.6400    -2.0070    -1.8290 ca         1 CRR      -0.185000
      4 C2           4.2150    -2.9420    -0.9510 ca         1 CRR      -0.110000
      5 C1           3.9170    -2.9360     0.3990 ca         1 CRR      -0.165500
      6 C20          3.0240    -1.9670     0.8560 ca         1 CRR      -0.051700
      7 N3           2.5440    -1.7210     2.1090 na         1 CRR      -0.247700
      8 C19          1.6730    -0.6660     2.0580 cc         1 CRR      -0.211600
      9 C6           1.5700    -0.1920     0.7800 cd         1 CRR       0.077600
     10 C7           0.7040     0.8750     0.2840 cd         1 CRR      -0.145800
     11 C8           1.1040     2.0250    -0.3830 cc         1 CRR      -0.212600
     12 C36          2.4490     2.6100    -0.6910 c          1 CRR       0.729600
     13 O39          3.4430     2.0360    -0.2140 o          1 CRR      -0.736250
     14 O40          2.4410     3.6400    -1.4010 o          1 CRR      -0.736250
     15 N1          -0.0210     2.6800    -0.7560 na         1 CRR      -0.046000
     16 C9          -1.1390     2.0200    -0.3680 cc         1 CRR      -0.212600
     17 C35         -2.4910     2.6030    -0.6450 c          1 CRR       0.729600
     18 O37         -3.4790     1.9780    -0.2230 o          1 CRR      -0.736250
     19 O38         -2.4960     3.6860    -1.2720 o          1 CRR      -0.736250
     20 C10         -0.7240     0.8700     0.2910 cd         1 CRR      -0.145800
     21 C11         -1.5790    -0.2010     0.7940 cd         1 CRR       0.077600
     22 C12         -2.4440    -1.0320     0.0070 ca         1 CRR      -0.060300
     23 C13         -2.7720    -1.0610    -1.3500 ca         1 CRR       0.006000
     24 C14         -3.6530    -2.0210    -1.8070 ca         1 CRR      -0.185000
     25 C15         -4.2270    -2.9550    -0.9260 ca         1 CRR      -0.110000
     26 C16         -3.9250    -2.9470     0.4220 ca         1 CRR      -0.165500
     27 C17         -3.0290    -1.9780     0.8750 ca         1 CRR      -0.051700
     28 N2          -2.5460    -1.7300     2.1270 na         1 CRR      -0.247700
     29 C18         -1.6770    -0.6730     2.0740 cc         1 CRR      -0.211600
     30 H4           2.3210    -0.3260    -2.0470 ha         1 CRR       0.136500
     31 H3           3.8990    -2.0410    -2.8800 ha         1 CRR       0.087000
     32 H2           4.9040    -3.6820    -1.3390 ha         1 CRR       0.073000
     33 H1           4.3610    -3.6570     1.0730 ha         1 CRR       0.079000
     34 HN3          2.7750    -2.2370     2.9400 hn         1 CRR       0.317000
     35 H19          1.1990    -0.3120     2.9600 h4         1 CRR       0.195000
     36 HN1         -0.0270     3.5620    -1.2430 hn         1 CRR       0.371000
     37 H13         -2.3350    -0.3400    -2.0300 ha         1 CRR       0.136500
     38 H14         -3.9150    -2.0570    -2.8570 ha         1 CRR       0.087000
     39 H15         -4.9180    -3.6940    -1.3120 ha         1 CRR       0.073000
     40 H16         -4.3690    -3.6670     1.0990 ha         1 CRR       0.079000
     41 HN2         -2.7750    -2.2460     2.9590 hn         1 CRR       0.317000
     42 H18         -1.2030    -0.3180     2.9740 h4         1 CRR       0.195000
@<TRIPOS>BOND
     1     1     2 ar  
     2     1     6 ar  
     3     1     9 1   
     4     2     3 ar  
     5     2    30 1   
     6     3     4 ar  
     7     3    31 1   
     8     4     5 ar  
     9     4    32 1   
    10     5     6 ar  
    11     5    33 1   
    12     6     7 1   
    13     7     8 1   
    14     7    34 1   
    15     8     9 2   
    16     8    35 1   
    17     9    10 1   
    18    10    11 2   
    19    10    20 1   
    20    11    12 1   
    21    11    15 1   
    22    12    13 1   
    23    12    14 1   
    24    15    16 1   
    25    15    36 1   
    26    16    17 1   
    27    16    20 2   
    28    17    18 1   
    29    17    19 1   
    30    20    21 1   
    31    21    22 1   
    32    21    29 2   
    33    22    23 ar  
    34    22    27 ar  
    35    23    24 ar  
    36    23    37 1   
    37    24    25 ar  
    38    24    38 1   
    39    25    26 ar  
    40    25    39 1   
    41    26    27 ar  
    42    26    40 1   
    43    27    28 1   
    44    28    29 1   
    45    28    41 1   
    46    29    42 1   
@<TRIPOS>SUBSTRUCTURE
     1 CRR         1 TEMP              0 ****  ****    0 ROOT
