@<TRIPOS>MOLECULE
CRS
   16    16     1     0     0
SMALL
No Charge or Current Charge


@<TRIPOS>ATOM
      1 C1          -0.1890    -0.1040    -1.2190 ca         1 CRS       0.141100
      2 C2          -0.9230    -0.1190    -0.0220 ca         1 CRS      -0.207000
      3 C3          -0.2590    -0.0400     1.2180 ca         1 CRS      -0.034300
      4 C4           1.1450     0.0600     1.2450 ca         1 CRS      -0.149000
      5 C5           1.8800     0.0750     0.0470 ca         1 CRS      -0.072000
      6 C6           1.2100    -0.0080    -1.1860 ca         1 CRS      -0.149000
      7 C7          -1.0530    -0.0520     2.5150 c3         1 CRS      -0.049800
      8 O1          -0.8330    -0.1830    -2.4160 oh         1 CRS      -0.535100
      9 H2          -2.0080    -0.1920    -0.0470 ha         1 CRS       0.109000
     10 H4           1.6690     0.1260     2.1960 ha         1 CRS       0.113000
     11 H5           2.9650     0.1510     0.0740 ha         1 CRS       0.113000
     12 H6           1.7760     0.0040    -2.1140 ha         1 CRS       0.127000
     13 H71         -1.3470     0.9640     2.8020 hc         1 CRS       0.043033
     14 H72         -1.9670    -0.6510     2.4180 hc         1 CRS       0.043033
     15 H73         -0.4670    -0.4770     3.3390 hc         1 CRS       0.043033
     16 HO1         -1.7970    -0.2430    -2.2430 ho         1 CRS       0.463000
@<TRIPOS>BOND
     1     1     2 ar  
     2     1     6 ar  
     3     1     8 1   
     4     2     3 ar  
     5     2     9 1   
     6     3     4 ar  
     7     3     7 1   
     8     4     5 ar  
     9     4    10 1   
    10     5     6 ar  
    11     5    11 1   
    12     6    12 1   
    13     7    13 1   
    14     7    14 1   
    15     7    15 1   
    16     8    16 1   
@<TRIPOS>SUBSTRUCTURE
     1 CRS         1 TEMP              0 ****  ****    0 ROOT
