@<TRIPOS>MOLECULE
CRS
   16    16     1     0     0
SMALL
bcc


@<TRIPOS>ATOM
      1 C1          -0.1970    -0.1060    -1.1970 ca         1 CRS       0.141100
      2 C2          -0.9100    -0.1320    -0.0010 ca         1 CRS      -0.225000
      3 C3          -0.2550    -0.0520     1.2250 ca         1 CRS      -0.034300
      4 C4           1.1340     0.0530     1.2410 ca         1 CRS      -0.167000
      5 C5           1.8430     0.0800     0.0470 ca         1 CRS      -0.090000
      6 C6           1.1910     0.0020    -1.1740 ca         1 CRS      -0.167000
      7 C7          -1.0410    -0.0500     2.5040 c3         1 CRS      -0.049800
      8 O1          -0.8030    -0.1850    -2.4000 oh         1 CRS      -0.496100
      9 H2          -1.9930    -0.2160    -0.0230 ha         1 CRS       0.127000
     10 H4           1.6620     0.1120     2.1840 ha         1 CRS       0.131000
     11 H5           2.9230     0.1590     0.0650 ha         1 CRS       0.131000
     12 H6           1.7500     0.0220    -2.1010 ha         1 CRS       0.145000
     13 H71         -1.2950     0.9690     2.8030 hc         1 CRS       0.043033
     14 H72         -1.9760    -0.6000     2.4020 hc         1 CRS       0.043033
     15 H73         -0.4740    -0.4940     3.3210 hc         1 CRS       0.043033
     16 HO1         -1.7580    -0.2530    -2.2890 ho         1 CRS       0.424000
@<TRIPOS>BOND
     1     1     2 ar  
     2     1     6 ar  
     3     1     8 1   
     4     2     3 ar  
     5     2     9 1   
     6     3     4 ar  
     7     3     7 1   
     8     4     5 ar  
     9     4    10 1   
    10     5     6 ar  
    11     5    11 1   
    12     6    12 1   
    13     7    13 1   
    14     7    14 1   
    15     7    15 1   
    16     8    16 1   
@<TRIPOS>SUBSTRUCTURE
     1 CRS         1 TEMP              0 ****  ****    0 ROOT
