@<TRIPOS>MOLECULE
CRT
  104   103     1     0     0
SMALL
No Charge or Current Charge


@<TRIPOS>ATOM
      1 C1M         -5.2440    -1.8820    14.4550 c3         1 CRT       0.150400
      2 O1          -4.7820    -0.7450    13.6910 os         1 CRT      -0.458500
      3 C1          -5.3950    -0.4710    12.4030 c3         1 CRT       0.189500
      4 C2          -5.1770    -1.6860    11.4610 c3         1 CRT      -0.117600
      5 C3          -6.9040    -0.1780    12.6150 c3         1 CRT      -0.117600
      6 C4          -4.6760     0.7960    11.8550 c3         1 CRT      -0.033700
      7 C5          -3.1780     0.6250    11.6610 c2         1 CRT      -0.189200
      8 C6          -2.5400     0.5950    10.4670 ce         1 CRT      -0.192500
      9 C7          -1.0870     0.4300    10.2600 ce         1 CRT      -0.053700
     10 C8          -0.2700    -0.1100    11.4320 c3         1 CRT      -0.056900
     11 C9          -0.5410     0.6950     9.0360 cf         1 CRT      -0.187000
     12 C10          0.8640     0.5870     8.6490 cf         1 CRT      -0.165500
     13 C11          1.3210     0.8050     7.3820 ce         1 CRT      -0.180500
     14 C12          2.7170     0.7160     6.9070 ce         1 CRT      -0.059700
     15 C13          3.8170     0.7020     7.9660 c3         1 CRT      -0.055900
     16 C14          2.9790     0.7130     5.5660 cf         1 CRT      -0.180500
     17 C15          4.2870     0.6310     4.9170 cf         1 CRT      -0.169000
     18 C16          4.4700     0.6940     3.5670 ce         1 CRT      -0.175000
     19 C17          5.7490     0.6050     2.8330 ce         1 CRT      -0.063200
     20 C18          7.0320     0.8030     3.6380 c3         1 CRT      -0.055900
     21 C19          5.7440     0.4160     1.4790 cf         1 CRT      -0.178500
     22 C20          6.9110     0.3030     0.5990 cf         1 CRT      -0.170000
     23 C21          6.9070     0.2040    -0.7610 ce         1 CRT      -0.170000
     24 C22          5.7260     0.1890    -1.6470 ce         1 CRT      -0.178500
     25 C23          5.7220     0.1830    -3.0140 cf         1 CRT      -0.063200
     26 C24          7.0040     0.2670    -3.8390 c3         1 CRT      -0.055900
     27 C25          4.4480     0.1650    -3.7400 cf         1 CRT      -0.175000
     28 C26          4.2560    -0.0930    -5.0660 ce         1 CRT      -0.169000
     29 C27          2.9340    -0.1070    -5.7130 ce         1 CRT      -0.180500
     30 C28          2.6620    -0.2980    -7.0390 cf         1 CRT      -0.059700
     31 C29          3.7610    -0.4640    -8.0860 c3         1 CRT      -0.055900
     32 C30          1.2730    -0.2810    -7.5100 cf         1 CRT      -0.180500
     33 C31          0.8070    -0.6850    -8.7260 ce         1 CRT      -0.165500
     34 C32         -0.6130    -0.6480    -9.1110 ce         1 CRT      -0.187000
     35 C33         -1.1530    -0.9790   -10.3220 cf         1 CRT      -0.053700
     36 C34         -0.2970    -1.3860   -11.5190 c3         1 CRT      -0.056900
     37 C35         -2.6010    -0.8790   -10.5260 cf         1 CRT      -0.192500
     38 C36         -3.3100    -1.3940   -11.5600 c2         1 CRT      -0.189200
     39 C37         -4.8170    -1.2780   -11.7360 c3         1 CRT      -0.033700
     40 C38         -5.2880    -0.0020   -12.4950 c3         1 CRT       0.189500
     41 C39         -4.5940     0.1130   -13.8790 c3         1 CRT      -0.117600
     42 C40         -6.8340    -0.0070   -12.6320 c3         1 CRT      -0.117600
     43 O2          -4.8950     1.1230   -11.6640 os         1 CRT      -0.458500
     44 C2M         -5.1970     2.4630   -12.1160 c3         1 CRT       0.150400
     45 H1M1        -5.0930    -2.8220    13.9090 h1         1 CRT       0.026033
     46 H1M2        -4.6830    -1.9540    15.3950 h1         1 CRT       0.026033
     47 H1M3        -6.3070    -1.7900    14.7130 h1         1 CRT       0.026033
     48 H21A        -4.1290    -2.0090    11.4700 hc         1 CRT       0.041367
     49 H22A        -5.8020    -2.5390    11.7520 hc         1 CRT       0.041367
     50 H23         -5.4410    -1.4230    10.4300 hc         1 CRT       0.041367
     51 H31A        -7.0490     0.5760    13.3980 hc         1 CRT       0.041367
     52 H32A        -7.3530     0.2040    11.6900 hc         1 CRT       0.041367
     53 H33         -7.4570    -1.0820    12.8950 hc         1 CRT       0.041367
     54 H41         -5.1440     1.0870    10.9070 hc         1 CRT       0.052950
     55 H42         -4.8560     1.6310    12.5430 hc         1 CRT       0.052950
     56 H5          -2.6310     0.5300    12.6000 ha         1 CRT       0.175000
     57 H6          -3.1310     0.7200     9.5580 ha         1 CRT       0.168500
     58 H81         -0.8610    -0.7740    12.0740 hc         1 CRT       0.042200
     59 H82          0.5850    -0.7090    11.1020 hc         1 CRT       0.042200
     60 H83          0.1140     0.7070    12.0550 hc         1 CRT       0.042200
     61 H9          -1.2180     1.0440     8.2540 ha         1 CRT       0.169000
     62 H10          1.5790     0.3130     9.4240 ha         1 CRT       0.172000
     63 H11          0.5800     1.0550     6.6210 ha         1 CRT       0.170500
     64 H131         4.0520    -0.3220     8.2780 hc         1 CRT       0.042200
     65 H132         4.7440     1.1640     7.6100 hc         1 CRT       0.042200
     66 H133         3.5340     1.2700     8.8600 hc         1 CRT       0.042200
     67 H14          2.1230     0.7600     4.8900 ha         1 CRT       0.169000
     68 H15          5.1560     0.4860     5.5580 ha         1 CRT       0.173000
     69 H16          3.5780     0.8040     2.9480 ha         1 CRT       0.169500
     70 H181         6.8800     1.4640     4.4980 hc         1 CRT       0.042033
     71 H182         7.4160    -0.1530     4.0110 hc         1 CRT       0.042033
     72 H183         7.8240     1.2750     3.0460 hc         1 CRT       0.042033
     73 H19          4.7680     0.3210     1.0050 ha         1 CRT       0.172000
     74 H20          7.8910     0.2860     1.0780 ha         1 CRT       0.170000
     75 H21          7.8820     0.1180    -1.2430 ha         1 CRT       0.170000
     76 H22          4.7550     0.1620    -1.1540 ha         1 CRT       0.172000
     77 H241         6.8480     0.7840    -4.7920 hc         1 CRT       0.042033
     78 H242         7.7900     0.8330    -3.3280 hc         1 CRT       0.042033
     79 H243         7.3980    -0.7320    -4.0590 hc         1 CRT       0.042033
     80 H25          3.5570     0.3630    -3.1410 ha         1 CRT       0.169500
     81 H26          5.1180    -0.3300    -5.6880 ha         1 CRT       0.173000
     82 H27          2.0850     0.0380    -5.0420 ha         1 CRT       0.169000
     83 H291         3.4680    -0.0530    -9.0590 hc         1 CRT       0.042200
     84 H292         4.6790     0.0660    -7.8120 hc         1 CRT       0.042200
     85 H293         4.0140    -1.5210    -8.2290 hc         1 CRT       0.042200
     86 H30          0.5340     0.0810    -6.7920 ha         1 CRT       0.170500
     87 H31          1.5110    -1.0850    -9.4550 ha         1 CRT       0.172000
     88 H32         -1.3010    -0.3330    -8.3240 ha         1 CRT       0.169000
     89 H341        -0.7430    -1.0730   -12.4690 hc         1 CRT       0.042200
     90 H342         0.6950    -0.9230   -11.4970 hc         1 CRT       0.042200
     91 H343        -0.1580    -2.4730   -11.5530 hc         1 CRT       0.042200
     92 H35         -3.1560    -0.3450    -9.7520 ha         1 CRT       0.168500
     93 H36         -2.8150    -1.9580   -12.3500 ha         1 CRT       0.175000
     94 H371        -5.1810    -2.1620   -12.2750 hc         1 CRT       0.052950
     95 H372        -5.3070    -1.3090   -10.7550 hc         1 CRT       0.052950
     96 H391        -3.5230     0.3170   -13.7680 hc         1 CRT       0.041367
     97 H392        -4.7050    -0.8220   -14.4410 hc         1 CRT       0.041367
     98 H393        -5.0350     0.9130   -14.4850 hc         1 CRT       0.041367
     99 H401        -7.3140     0.0670   -11.6490 hc         1 CRT       0.041367
    100 H402        -7.1880     0.8230   -13.2550 hc         1 CRT       0.041367
    101 H403        -7.1740    -0.9360   -13.1050 hc         1 CRT       0.041367
    102 H2M1        -4.8330     3.1940   -11.3830 h1         1 CRT       0.026033
    103 H2M2        -4.7070     2.6850   -13.0730 h1         1 CRT       0.026033
    104 H2M3        -6.2770     2.6180   -12.2270 h1         1 CRT       0.026033
@<TRIPOS>BOND
     1     1     2 1   
     2     1    45 1   
     3     1    46 1   
     4     1    47 1   
     5     2     3 1   
     6     3     4 1   
     7     3     5 1   
     8     3     6 1   
     9     4    48 1   
    10     4    49 1   
    11     4    50 1   
    12     5    51 1   
    13     5    52 1   
    14     5    53 1   
    15     6     7 1   
    16     6    54 1   
    17     6    55 1   
    18     7     8 2   
    19     7    56 1   
    20     8     9 1   
    21     8    57 1   
    22     9    10 1   
    23     9    11 2   
    24    10    58 1   
    25    10    59 1   
    26    10    60 1   
    27    11    12 1   
    28    11    61 1   
    29    12    13 2   
    30    12    62 1   
    31    13    14 1   
    32    13    63 1   
    33    14    15 1   
    34    14    16 2   
    35    15    64 1   
    36    15    65 1   
    37    15    66 1   
    38    16    17 1   
    39    16    67 1   
    40    17    18 2   
    41    17    68 1   
    42    18    19 1   
    43    18    69 1   
    44    19    20 1   
    45    19    21 2   
    46    20    70 1   
    47    20    71 1   
    48    20    72 1   
    49    21    22 1   
    50    21    73 1   
    51    22    23 2   
    52    22    74 1   
    53    23    24 1   
    54    23    75 1   
    55    24    25 2   
    56    24    76 1   
    57    25    26 1   
    58    25    27 1   
    59    26    77 1   
    60    26    78 1   
    61    26    79 1   
    62    27    28 2   
    63    27    80 1   
    64    28    29 1   
    65    28    81 1   
    66    29    30 2   
    67    29    82 1   
    68    30    31 1   
    69    30    32 1   
    70    31    83 1   
    71    31    84 1   
    72    31    85 1   
    73    32    33 2   
    74    32    86 1   
    75    33    34 1   
    76    33    87 1   
    77    34    35 2   
    78    34    88 1   
    79    35    36 1   
    80    35    37 1   
    81    36    89 1   
    82    36    90 1   
    83    36    91 1   
    84    37    38 2   
    85    37    92 1   
    86    38    39 1   
    87    38    93 1   
    88    39    40 1   
    89    39    94 1   
    90    39    95 1   
    91    40    41 1   
    92    40    42 1   
    93    40    43 1   
    94    41    96 1   
    95    41    97 1   
    96    41    98 1   
    97    42    99 1   
    98    42   100 1   
    99    42   101 1   
   100    43    44 1   
   101    44   102 1   
   102    44   103 1   
   103    44   104 1   
@<TRIPOS>SUBSTRUCTURE
     1 CRT         1 TEMP              0 ****  ****    0 ROOT
