@<TRIPOS>MOLECULE
CRT
  104   103     1     0     0
SMALL
abcg2


@<TRIPOS>ATOM
      1 C1M         -5.0710    -1.9940    13.9180 c3         1 CRT       0.150400
      2 O1          -4.8270    -0.7980    13.2220 os         1 CRT      -0.458500
      3 C1          -5.3240    -0.7070    11.8910 c3         1 CRT       0.189500
      4 C2          -4.8900    -1.8930    11.0320 c3         1 CRT      -0.117600
      5 C3          -6.8470    -0.5840    11.8910 c3         1 CRT      -0.117600
      6 C4          -4.7200     0.5980    11.3410 c3         1 CRT      -0.033700
      7 C5          -3.2280     0.6050    11.2900 c2         1 CRT      -0.189200
      8 C6          -2.5260     0.6970    10.1540 ce         1 CRT      -0.192500
      9 C7          -1.0740     0.7010    10.0490 ce         1 CRT      -0.053700
     10 C8          -0.2800     0.6140    11.3170 c3         1 CRT      -0.056900
     11 C9          -0.5220     0.7690     8.8130 cf         1 CRT      -0.187000
     12 C10          0.8770     0.7790     8.4840 cf         1 CRT      -0.165500
     13 C11          1.3320     0.8090     7.2120 ce         1 CRT      -0.180500
     14 C12          2.7240     0.8150     6.8190 ce         1 CRT      -0.059700
     15 C13          3.7650     0.8280     7.8970 c3         1 CRT      -0.055900
     16 C14          3.0160     0.7940     5.4920 cf         1 CRT      -0.180500
     17 C15          4.3190     0.7790     4.8900 cf         1 CRT      -0.169000
     18 C16          4.4990     0.6960     3.5510 ce         1 CRT      -0.175000
     19 C17          5.7720     0.6550     2.8710 ce         1 CRT      -0.063200
     20 C18          7.0220     0.7560     3.6940 c3         1 CRT      -0.055900
     21 C19          5.7650     0.5160     1.5170 cf         1 CRT      -0.178500
     22 C20          6.9080     0.4240     0.6590 cf         1 CRT      -0.170000
     23 C21          6.8870     0.2650    -0.6910 ce         1 CRT      -0.170000
     24 C22          5.7260     0.1730    -1.5250 ce         1 CRT      -0.178500
     25 C23          5.7490    -0.0080    -2.8750 cf         1 CRT      -0.063200
     26 C24          7.0450    -0.1410    -3.6260 c3         1 CRT      -0.055900
     27 C25          4.4850    -0.0930    -3.5630 cf         1 CRT      -0.175000
     28 C26          4.2860    -0.2710    -4.8910 ce         1 CRT      -0.169000
     29 C27          2.9760    -0.3410    -5.4690 ce         1 CRT      -0.180500
     30 C28          2.6660    -0.5030    -6.7830 cf         1 CRT      -0.059700
     31 C29          3.6930    -0.6380    -7.8680 c3         1 CRT      -0.055900
     32 C30          1.2700    -0.5370    -7.1560 cf         1 CRT      -0.180500
     33 C31          0.7980    -0.6940    -8.4130 ce         1 CRT      -0.165500
     34 C32         -0.6050    -0.6920    -8.7250 ce         1 CRT      -0.187000
     35 C33         -1.1740    -0.8570    -9.9440 cf         1 CRT      -0.053700
     36 C34         -0.3980    -1.0930   -11.2040 c3         1 CRT      -0.056900
     37 C35         -2.6260    -0.7930   -10.0420 cf         1 CRT      -0.192500
     38 C36         -3.3400    -0.9710   -11.1600 c2         1 CRT      -0.189200
     39 C37         -4.8290    -0.9030   -11.2220 c3         1 CRT      -0.033700
     40 C38         -5.3720     0.1560   -12.1970 c3         1 CRT       0.189500
     41 C39         -4.9190    -0.1390   -13.6290 c3         1 CRT      -0.117600
     42 C40         -6.8990     0.1420   -12.1310 c3         1 CRT      -0.117600
     43 O2          -4.8430     1.3860   -11.7200 os         1 CRT      -0.458500
     44 C2M         -5.1470     2.5420   -12.4590 c3         1 CRT       0.150400
     45 H1M1        -4.5080    -2.8430    13.5170 h1         1 CRT       0.026033
     46 H1M2        -4.7490    -1.8370    14.9480 h1         1 CRT       0.026033
     47 H1M3        -6.1300    -2.2730    13.9380 h1         1 CRT       0.026033
     48 H21A        -3.8120    -2.0510    11.0830 hc         1 CRT       0.041367
     49 H22A        -5.3880    -2.8180    11.3270 hc         1 CRT       0.041367
     50 H23         -5.1440    -1.7070     9.9880 hc         1 CRT       0.041367
     51 H31A        -7.1710     0.2630    12.4990 hc         1 CRT       0.041367
     52 H32A        -7.2180    -0.4290    10.8770 hc         1 CRT       0.041367
     53 H33         -7.3330    -1.4830    12.2740 hc         1 CRT       0.041367
     54 H41         -5.1270     0.7770    10.3430 hc         1 CRT       0.052950
     55 H42         -5.0700     1.4220    11.9740 hc         1 CRT       0.052950
     56 H5          -2.7070     0.5270    12.2390 ha         1 CRT       0.175000
     57 H6          -3.0700     0.7720     9.2150 ha         1 CRT       0.168500
     58 H81         -0.5250    -0.2990    11.8630 hc         1 CRT       0.042200
     59 H82          0.7940     0.6190    11.1530 hc         1 CRT       0.042200
     60 H83         -0.5140     1.4470    11.9820 hc         1 CRT       0.042200
     61 H9          -1.2040     0.8170     7.9670 ha         1 CRT       0.169000
     62 H10          1.5940     0.7570     9.2960 ha         1 CRT       0.172000
     63 H11          0.6040     0.8220     6.4050 ha         1 CRT       0.170500
     64 H131         3.6940    -0.0660     8.5200 hc         1 CRT       0.042200
     65 H132         4.7780     0.8710     7.5080 hc         1 CRT       0.042200
     66 H133         3.6330     1.6850     8.5600 hc         1 CRT       0.042200
     67 H14          2.1800     0.7760     4.7980 ha         1 CRT       0.169000
     68 H15          5.1860     0.8240     5.5380 ha         1 CRT       0.173000
     69 H16          3.6170     0.6430     2.9180 ha         1 CRT       0.169500
     70 H181         7.0240     1.6740     4.2850 hc         1 CRT       0.042033
     71 H182         7.0960    -0.0750     4.3990 hc         1 CRT       0.042033
     72 H183         7.9270     0.7540     3.0930 hc         1 CRT       0.042033
     73 H19          4.7890     0.4550     1.0460 ha         1 CRT       0.172000
     74 H20          7.8880     0.4760     1.1170 ha         1 CRT       0.170000
     75 H21          7.8520     0.1960    -1.1810 ha         1 CRT       0.170000
     76 H22          4.7530     0.2540    -1.0520 ha         1 CRT       0.172000
     77 H241         6.9090    -0.1400    -4.7040 hc         1 CRT       0.042033
     78 H242         7.7300     0.6740    -3.3920 hc         1 CRT       0.042033
     79 H243         7.5530    -1.0720    -3.3670 hc         1 CRT       0.042033
     80 H25          3.6040    -0.0050    -2.9320 ha         1 CRT       0.169500
     81 H26          5.1400    -0.3590    -5.5520 ha         1 CRT       0.173000
     82 H27          2.1480    -0.2540    -4.7700 ha         1 CRT       0.169000
     83 H291         3.5570     0.1340    -8.6280 hc         1 CRT       0.042200
     84 H292         4.7120    -0.5580    -7.5000 hc         1 CRT       0.042200
     85 H293         3.6040    -1.6010    -8.3760 hc         1 CRT       0.042200
     86 H30          0.5520    -0.4220    -6.3480 ha         1 CRT       0.170500
     87 H31          1.5030    -0.8160    -9.2270 ha         1 CRT       0.172000
     88 H32         -1.2740    -0.5370    -7.8810 ha         1 CRT       0.169000
     89 H341        -0.6020    -0.3100   -11.9380 hc         1 CRT       0.042200
     90 H342         0.6770    -1.1200   -11.0460 hc         1 CRT       0.042200
     91 H343        -0.6860    -2.0390   -11.6670 hc         1 CRT       0.042200
     92 H35         -3.1560    -0.5780    -9.1180 ha         1 CRT       0.168500
     93 H36         -2.8260    -1.2000   -12.0880 ha         1 CRT       0.175000
     94 H371        -5.2280    -1.8740   -11.5360 hc         1 CRT       0.052950
     95 H372        -5.2330    -0.7050   -10.2250 hc         1 CRT       0.052950
     96 H391        -3.8410    -0.0200   -13.7490 hc         1 CRT       0.041367
     97 H392        -5.1760    -1.1640   -13.9010 hc         1 CRT       0.041367
     98 H393        -5.4070     0.5160   -14.3510 hc         1 CRT       0.041367
     99 H401        -7.2540     0.3840   -11.1270 hc         1 CRT       0.041367
    100 H402        -7.3460     0.8500   -12.8310 hc         1 CRT       0.041367
    101 H403        -7.2790    -0.8470   -12.3900 hc         1 CRT       0.041367
    102 H2M1        -4.6790     3.3820   -11.9460 h1         1 CRT       0.026033
    103 H2M2        -4.7530     2.5110   -13.4800 h1         1 CRT       0.026033
    104 H2M3        -6.2220     2.7440   -12.5190 h1         1 CRT       0.026033
@<TRIPOS>BOND
     1     1     2 1   
     2     1    45 1   
     3     1    46 1   
     4     1    47 1   
     5     2     3 1   
     6     3     4 1   
     7     3     5 1   
     8     3     6 1   
     9     4    48 1   
    10     4    49 1   
    11     4    50 1   
    12     5    51 1   
    13     5    52 1   
    14     5    53 1   
    15     6     7 1   
    16     6    54 1   
    17     6    55 1   
    18     7     8 2   
    19     7    56 1   
    20     8     9 1   
    21     8    57 1   
    22     9    10 1   
    23     9    11 2   
    24    10    58 1   
    25    10    59 1   
    26    10    60 1   
    27    11    12 1   
    28    11    61 1   
    29    12    13 2   
    30    12    62 1   
    31    13    14 1   
    32    13    63 1   
    33    14    15 1   
    34    14    16 2   
    35    15    64 1   
    36    15    65 1   
    37    15    66 1   
    38    16    17 1   
    39    16    67 1   
    40    17    18 2   
    41    17    68 1   
    42    18    19 1   
    43    18    69 1   
    44    19    20 1   
    45    19    21 2   
    46    20    70 1   
    47    20    71 1   
    48    20    72 1   
    49    21    22 1   
    50    21    73 1   
    51    22    23 2   
    52    22    74 1   
    53    23    24 1   
    54    23    75 1   
    55    24    25 2   
    56    24    76 1   
    57    25    26 1   
    58    25    27 1   
    59    26    77 1   
    60    26    78 1   
    61    26    79 1   
    62    27    28 2   
    63    27    80 1   
    64    28    29 1   
    65    28    81 1   
    66    29    30 2   
    67    29    82 1   
    68    30    31 1   
    69    30    32 1   
    70    31    83 1   
    71    31    84 1   
    72    31    85 1   
    73    32    33 2   
    74    32    86 1   
    75    33    34 1   
    76    33    87 1   
    77    34    35 2   
    78    34    88 1   
    79    35    36 1   
    80    35    37 1   
    81    36    89 1   
    82    36    90 1   
    83    36    91 1   
    84    37    38 2   
    85    37    92 1   
    86    38    39 1   
    87    38    93 1   
    88    39    40 1   
    89    39    94 1   
    90    39    95 1   
    91    40    41 1   
    92    40    42 1   
    93    40    43 1   
    94    41    96 1   
    95    41    97 1   
    96    41    98 1   
    97    42    99 1   
    98    42   100 1   
    99    42   101 1   
   100    43    44 1   
   101    44   102 1   
   102    44   103 1   
   103    44   104 1   
@<TRIPOS>SUBSTRUCTURE
     1 CRT         1 TEMP              0 ****  ****    0 ROOT
