@<TRIPOS>MOLECULE
CRU
   38    39     1     0     0
SMALL
No Charge or Current Charge


@<TRIPOS>ATOM
      1 OE1          6.5430     1.1550    -1.0290 o          1 CRU      -0.752000
      2 CD3          5.4700     1.7130    -1.1980 c          1 CRU       0.715000
      3 OE2          5.1280     2.2120    -2.2600 o          1 CRU      -0.752000
      4 CG1          4.4630     1.7230    -0.0350 c3         1 CRU      -0.194400
      5 CB1          3.5550     0.4600    -0.0930 c3         1 CRU      -0.108700
      6 CA1          2.4750     0.4080     0.9860 ce         1 CRU       0.431000
      7 N            2.7710     0.5340     2.2500 n2         1 CRU      -0.738100
      8 C1           1.0510     0.3500     0.5360 cc         1 CRU       0.449600
      9 N2           0.1040     1.2160     0.9410 nd         1 CRU      -0.699300
     10 CA2         -1.0270     0.7340     0.2880 cd         1 CRU       0.065400
     11 C2          -0.7690    -0.4790    -0.5270 c          1 CRU       0.530200
     12 O2          -1.5120    -1.1580    -1.2270 o          1 CRU      -0.549000
     13 N3           0.5760    -0.6650    -0.2960 n          1 CRU      -0.285300
     14 CA3          1.3170    -1.8680    -0.7840 c3         1 CRU      -0.068000
     15 C            1.9410    -2.7430     0.3240 c          1 CRU       0.716000
     16 O            1.2630    -3.0030     1.3060 o          1 CRU      -0.718000
     17 CB2         -2.2280     1.3890     0.4600 ce         1 CRU      -0.141200
     18 CG2         -3.6060     0.9960     0.0570 ca         1 CRU      -0.053800
     19 CD1         -4.4790     1.9720    -0.4620 ca         1 CRU      -0.065000
     20 CE1         -5.7930     1.6260    -0.8270 ca         1 CRU      -0.186000
     21 CZ          -6.2430     0.3080    -0.6660 ca         1 CRU       0.113100
     22 OH          -7.5160    -0.0190    -1.0200 oh         1 CRU      -0.548100
     23 CE2         -5.3850    -0.6670    -0.1340 ca         1 CRU      -0.186000
     24 CD2         -4.0710    -0.3230     0.2310 ca         1 CRU      -0.065000
     25 OXT          3.1050    -3.0890     0.1930 o          1 CRU      -0.718000
     26 HG11         4.9920     1.6760     0.9240 hc         1 CRU       0.026200
     27 HG12         3.7850     2.5810    -0.1250 hc         1 CRU       0.026200
     28 HB11         3.0930     0.4300    -1.0870 hc         1 CRU       0.071700
     29 HB12         4.1850    -0.4340    -0.0200 hc         1 CRU       0.071700
     30 HN1          1.8980     0.6650     2.7840 hn         1 CRU       0.373400
     31 HA31         0.6360    -2.5150    -1.3500 h1         1 CRU       0.060200
     32 HA32         2.1090    -1.5550    -1.4730 h1         1 CRU       0.060200
     33 HB1         -2.1720     2.3120     1.0370 ha         1 CRU       0.177000
     34 HD1         -4.1370     2.9970    -0.5880 ha         1 CRU       0.136000
     35 HE1         -6.4590     2.3830    -1.2340 ha         1 CRU       0.107500
     36 HH          -7.6520    -0.9730    -0.8380 ho         1 CRU       0.456000
     37 HE2         -5.7290    -1.6890     0.0040 ha         1 CRU       0.107500
     38 HD2         -3.4180    -1.0800     0.6590 ha         1 CRU       0.136000
@<TRIPOS>BOND
     1     1     2 1   
     2     2     3 1   
     3     2     4 1   
     4     4     5 1   
     5     4    26 1   
     6     4    27 1   
     7     5     6 1   
     8     5    28 1   
     9     5    29 1   
    10     6     7 2   
    11     6     8 1   
    12     7    30 1   
    13     8     9 2   
    14     8    13 1   
    15     9    10 1   
    16    10    11 1   
    17    10    17 2   
    18    11    12 2   
    19    11    13 1   
    20    13    14 1   
    21    14    15 1   
    22    14    31 1   
    23    14    32 1   
    24    15    16 1   
    25    15    25 1   
    26    17    18 1   
    27    17    33 1   
    28    18    19 ar  
    29    18    24 ar  
    30    19    20 ar  
    31    19    34 1   
    32    20    21 ar  
    33    20    35 1   
    34    21    22 1   
    35    21    23 ar  
    36    22    36 1   
    37    23    24 ar  
    38    23    37 1   
    39    24    38 1   
@<TRIPOS>SUBSTRUCTURE
     1 CRU         1 TEMP              0 ****  ****    0 ROOT
