@<TRIPOS>MOLECULE
CRU
   38    39     1     0     0
SMALL
abcg2


@<TRIPOS>ATOM
      1 OE1          5.7820     0.0520    -1.7450 o          1 CRU      -0.752000
      2 CD3          5.8610     1.1400    -1.1410 c          1 CRU       0.715000
      3 OE2          6.8120     1.9470    -1.1910 o          1 CRU      -0.752000
      4 CG1          4.6920     1.5470    -0.2260 c3         1 CRU      -0.194400
      5 CB1          3.4910     0.6190    -0.2860 c3         1 CRU      -0.108700
      6 CA1          2.3700     1.0100     0.6340 ce         1 CRU       0.431000
      7 N            2.5620     1.8170     1.5930 n2         1 CRU      -0.738100
      8 C1           0.9940     0.5230     0.3410 cc         1 CRU       0.449600
      9 N2          -0.0250     1.2630     0.6070 nd         1 CRU      -0.699300
     10 CA2         -1.1540     0.5730     0.1760 cd         1 CRU       0.065400
     11 C2          -0.7070    -0.7140    -0.3970 c          1 CRU       0.530200
     12 O2          -1.3300    -1.6540    -0.8570 o          1 CRU      -0.549000
     13 N3           0.6660    -0.6570    -0.2950 n          1 CRU      -0.285300
     14 CA3          1.5080    -1.8170    -0.4650 c3         1 CRU      -0.068000
     15 C            2.1180    -2.3220     0.8620 c          1 CRU       0.716000
     16 O            1.8470    -1.6790     1.8900 o          1 CRU      -0.718000
     17 CB2         -2.3780     1.1390     0.3190 ce         1 CRU      -0.141200
     18 CG2         -3.7290     0.7460    -0.0020 ca         1 CRU      -0.053800
     19 CD1         -4.7360     1.6840     0.2860 ca         1 CRU      -0.065000
     20 CE1         -6.0660     1.4350     0.0280 ca         1 CRU      -0.186000
     21 CZ          -6.4410     0.2130    -0.5340 ca         1 CRU       0.113100
     22 OH          -7.7420     0.0050    -0.7690 oh         1 CRU      -0.548100
     23 CE2         -5.4600    -0.7370    -0.8260 ca         1 CRU      -0.186000
     24 CD2         -4.1300    -0.4750    -0.5660 ca         1 CRU      -0.065000
     25 OXT          2.8300    -3.3340     0.7490 o          1 CRU      -0.718000
     26 HG11         5.0650     1.6090     0.8000 hc         1 CRU       0.026200
     27 HG12         4.3880     2.5670    -0.4790 hc         1 CRU       0.026200
     28 HB11         3.1070     0.5700    -1.3090 hc         1 CRU       0.071700
     29 HB12         3.8110    -0.3980    -0.0480 hc         1 CRU       0.071700
     30 HN1          1.6920     1.9850     2.0960 hn         1 CRU       0.373400
     31 HA31         0.8880    -2.6010    -0.9010 h1         1 CRU       0.060200
     32 HA32         2.2960    -1.6190    -1.1920 h1         1 CRU       0.060200
     33 HB1         -2.3180     2.1200     0.7810 ha         1 CRU       0.177000
     34 HD1         -4.4600     2.6350     0.7250 ha         1 CRU       0.136000
     35 HE1         -6.8200     2.1770     0.2600 ha         1 CRU       0.107500
     36 HH          -7.8840    -0.8690    -1.1510 ho         1 CRU       0.456000
     37 HE2         -5.7420    -1.6890    -1.2590 ha         1 CRU       0.107500
     38 HD2         -3.3950    -1.2300    -0.7990 ha         1 CRU       0.136000
@<TRIPOS>BOND
     1     1     2 1   
     2     2     3 1   
     3     2     4 1   
     4     4     5 1   
     5     4    26 1   
     6     4    27 1   
     7     5     6 1   
     8     5    28 1   
     9     5    29 1   
    10     6     7 2   
    11     6     8 1   
    12     7    30 1   
    13     8     9 2   
    14     8    13 1   
    15     9    10 1   
    16    10    11 1   
    17    10    17 2   
    18    11    12 2   
    19    11    13 1   
    20    13    14 1   
    21    14    15 1   
    22    14    31 1   
    23    14    32 1   
    24    15    16 1   
    25    15    25 1   
    26    17    18 1   
    27    17    33 1   
    28    18    19 ar  
    29    18    24 ar  
    30    19    20 ar  
    31    19    34 1   
    32    20    21 ar  
    33    20    35 1   
    34    21    22 1   
    35    21    23 ar  
    36    22    36 1   
    37    23    24 ar  
    38    23    37 1   
    39    24    38 1   
@<TRIPOS>SUBSTRUCTURE
     1 CRU         1 TEMP              0 ****  ****    0 ROOT
