@<TRIPOS>MOLECULE
CRV
   59    61     1     0     0
SMALL
No Charge or Current Charge


@<TRIPOS>ATOM
      1 C1          -1.6570     0.5520    -2.0220 c3         1 CRV       0.299000
      2 C2          -1.9960     0.4630    -0.4880 c3         1 CRV       0.188800
      3 N3          -0.8200     0.2070     0.3950 n7         1 CRV      -0.876400
      4 C4          -2.6840     1.7300     0.0250 ca         1 CRV      -0.162300
      5 F5          -1.3510    -0.6640    -2.5320 f          1 CRV      -0.111667
      6 F6          -2.7160     1.0230    -2.7220 f          1 CRV      -0.111667
      7 F7          -0.6080     1.3750    -2.2610 f          1 CRV      -0.111667
      8 C8          -0.1730    -1.1340     0.3150 c3         1 CRV       0.130500
      9 C9          -1.1380    -2.3040     0.7300 c          1 CRV       0.565100
     10 C10          1.0920    -1.1060     1.2010 c3         1 CRV      -0.303400
     11 S11          2.4740    -0.1990     0.4720 s6         1 CRV       1.083000
     12 C12          3.8820    -0.6290     1.5270 c3         1 CRV      -0.235100
     13 N13         -1.4670    -3.1830    -0.2840 ns         1 CRV      -0.458900
     14 O14         -1.5780    -2.4270     1.8690 o          1 CRV      -0.599100
     15 C15         -2.4010    -4.2730    -0.1550 cx         1 CRV       0.056400
     16 N17         -4.3000    -3.1750    -1.3730 n8         1 CRV      -1.002200
     17 C18         -1.9990    -5.5560    -0.8480 cx         1 CRV      -0.123400
     18 C19         -1.9370    -5.4620     0.6570 cx         1 CRV      -0.123400
     19 C20         -4.0500     1.6980     0.3730 ca         1 CRV      -0.038000
     20 C21         -4.6920     2.8600     0.8380 ca         1 CRV      -0.181000
     21 C22         -3.9730     4.0590     0.9600 ca         1 CRV       0.156100
     22 C23         -2.6140     4.0990     0.6190 ca         1 CRV      -0.181000
     23 C24         -1.9690     2.9400     0.1530 ca         1 CRV      -0.038000
     24 O25         -4.5880     5.1880     1.4100 oh         1 CRV      -0.530100
     25 C26          5.2000     0.0140     1.1100 ca         1 CRV      -0.090300
     26 C27          6.0510    -0.6410     0.1990 ca         1 CRV      -0.081000
     27 C28          7.2670    -0.0480    -0.1850 ca         1 CRV      -0.109000
     28 C29          7.6390     1.2000     0.3420 ca         1 CRV      -0.095000
     29 C30          6.7940     1.8560     1.2530 ca         1 CRV      -0.109000
     30 C31          5.5770     1.2640     1.6370 ca         1 CRV      -0.081000
     31 O32          2.7260    -0.7590    -0.8630 o          1 CRV      -0.497500
     32 O33          2.2270     1.2420     0.6200 o          1 CRV      -0.497500
     33 C16         -3.8850    -3.8720    -0.1310 c3         1 CRV       0.164800
     34 H2          -2.7150    -0.3620    -0.3780 h1         1 CRV       0.070700
     35 HN3         -1.1420     0.3370     1.3630 hn         1 CRV       0.462000
     36 H8           0.1490    -1.3500    -0.7130 h1         1 CRV       0.099700
     37 H101         0.8890    -0.6630     2.1820 h1         1 CRV       0.101200
     38 H102         1.4630    -2.1270     1.3410 h1         1 CRV       0.101200
     39 H121         3.6070    -0.3220     2.5420 h1         1 CRV       0.093700
     40 H122         3.9620    -1.7220     1.5000 h1         1 CRV       0.093700
     41 HN13        -1.0910    -2.9780    -1.2010 hn         1 CRV       0.327500
     42 H171        -4.1870    -3.8160    -2.1660 hn         1 CRV       0.396500
     43 H172        -5.3130    -3.0050    -1.3390 hn         1 CRV       0.396500
     44 H181        -2.7830    -6.1700    -1.2830 hc         1 CRV       0.078700
     45 H182        -1.0570    -5.5730    -1.3920 hc         1 CRV       0.078700
     46 H191        -0.9550    -5.4110     1.1220 hc         1 CRV       0.078700
     47 H192        -2.6810    -6.0100     1.2300 hc         1 CRV       0.078700
     48 H20         -4.6190     0.7750     0.2800 ha         1 CRV       0.129000
     49 H21         -5.7460     2.8200     1.1010 ha         1 CRV       0.124500
     50 H23         -2.0570     5.0270     0.7150 ha         1 CRV       0.124500
     51 H24         -0.9120     2.9810    -0.1040 ha         1 CRV       0.129000
     52 HO25        -5.5260     4.9750     1.5980 ho         1 CRV       0.466000
     53 H27          5.7710    -1.6070    -0.2150 ha         1 CRV       0.119500
     54 H28          7.9200    -0.5570    -0.8900 ha         1 CRV       0.117000
     55 H29          8.5800     1.6590     0.0450 ha         1 CRV       0.114000
     56 H30          7.0800     2.8220     1.6620 ha         1 CRV       0.117000
     57 H31          4.9290     1.7790     2.3420 ha         1 CRV       0.119500
     58 H161        -4.0700    -3.2080     0.7260 h1         1 CRV       0.044700
     59 H162        -4.5090    -4.7680    -0.0050 h1         1 CRV       0.044700
@<TRIPOS>BOND
     1     1     2 1   
     2     1     5 1   
     3     1     6 1   
     4     1     7 1   
     5     2     3 1   
     6     2     4 1   
     7     2    34 1   
     8     3     8 1   
     9     3    35 1   
    10     4    19 ar  
    11     4    23 ar  
    12     8     9 1   
    13     8    10 1   
    14     8    36 1   
    15     9    13 1   
    16     9    14 2   
    17    10    11 1   
    18    10    37 1   
    19    10    38 1   
    20    11    12 1   
    21    11    31 2   
    22    11    32 2   
    23    12    25 1   
    24    12    39 1   
    25    12    40 1   
    26    13    15 1   
    27    13    41 1   
    28    15    17 1   
    29    15    18 1   
    30    15    33 1   
    31    16    33 1   
    32    16    42 1   
    33    16    43 1   
    34    17    18 1   
    35    17    44 1   
    36    17    45 1   
    37    18    46 1   
    38    18    47 1   
    39    19    20 ar  
    40    19    48 1   
    41    20    21 ar  
    42    20    49 1   
    43    21    22 ar  
    44    21    24 1   
    45    22    23 ar  
    46    22    50 1   
    47    23    51 1   
    48    24    52 1   
    49    25    26 ar  
    50    25    30 ar  
    51    26    27 ar  
    52    26    53 1   
    53    27    28 ar  
    54    27    54 1   
    55    28    29 ar  
    56    28    55 1   
    57    29    30 ar  
    58    29    56 1   
    59    30    57 1   
    60    33    58 1   
    61    33    59 1   
@<TRIPOS>SUBSTRUCTURE
     1 CRV         1 TEMP              0 ****  ****    0 ROOT
