@<TRIPOS>MOLECULE
CRV
   59    61     1     0     0
SMALL
abcg2


@<TRIPOS>ATOM
      1 C1          -1.2400     1.1770    -2.0590 c3         1 CRV       0.299000
      2 C2          -1.7610     0.7200    -0.6990 c3         1 CRV       0.188800
      3 N3          -0.6600     0.2470     0.1140 n7         1 CRV      -0.876400
      4 C4          -2.4640     1.8720    -0.0240 ca         1 CRV      -0.162300
      5 F5          -0.6650     0.1800    -2.7500 f          1 CRV      -0.111667
      6 F6          -2.2420     1.6390    -2.8210 f          1 CRV      -0.111667
      7 F7          -0.3360     2.1530    -1.9630 f          1 CRV      -0.111667
      8 C8          -0.3010    -1.1420    -0.0020 c3         1 CRV       0.130500
      9 C9          -1.4000    -2.0910     0.5110 c          1 CRV       0.565100
     10 C10          0.9510    -1.4030     0.8290 c3         1 CRV      -0.303400
     11 S11          2.2630    -0.2410     0.3990 s6         1 CRV       1.083000
     12 C12          3.7390    -1.0930     1.0010 c3         1 CRV      -0.235100
     13 N13         -1.4240    -3.2940    -0.0800 ns         1 CRV      -0.458900
     14 O14         -2.1440    -1.7520     1.4150 o          1 CRV      -0.599100
     15 C15         -2.3700    -4.3120     0.2620 cx         1 CRV       0.056400
     16 N17         -3.6460    -4.1800    -1.8050 n8         1 CRV      -1.002200
     17 C18         -1.8140    -5.6970     0.4020 cx         1 CRV      -0.123400
     18 C19         -2.2490    -4.9330     1.6150 cx         1 CRV      -0.123400
     19 C20         -3.8490     1.9730    -0.0730 ca         1 CRV      -0.038000
     20 C21         -4.5150     3.0260     0.5340 ca         1 CRV      -0.181000
     21 C22         -3.7930     4.0070     1.2090 ca         1 CRV       0.156100
     22 C23         -2.4040     3.9150     1.2680 ca         1 CRV      -0.181000
     23 C24         -1.7510     2.8610     0.6540 ca         1 CRV      -0.038000
     24 O25         -4.3820     5.0510     1.8210 oh         1 CRV      -0.530100
     25 C26          4.9240    -0.2120     0.7700 ca         1 CRV      -0.090300
     26 C27          5.5950    -0.2420    -0.4500 ca         1 CRV      -0.081000
     27 C28          6.6790     0.5940    -0.6750 ca         1 CRV      -0.109000
     28 C29          7.0980     1.4720     0.3160 ca         1 CRV      -0.095000
     29 C30          6.4310     1.5090     1.5340 ca         1 CRV      -0.109000
     30 C31          5.3460     0.6750     1.7570 ca         1 CRV      -0.081000
     31 O32          2.3550    -0.1530    -1.0570 o          1 CRV      -0.497500
     32 O33          2.1190     0.9890     1.1730 o          1 CRV      -0.497500
     33 C16         -3.7380    -4.1440    -0.3560 c3         1 CRV       0.164800
     34 H2          -2.5110    -0.0590    -0.9020 h1         1 CRV       0.070700
     35 HN3         -0.8450     0.4640     1.0850 hn         1 CRV       0.462000
     36 H8          -0.0680    -1.3810    -1.0400 h1         1 CRV       0.099700
     37 H101         0.7680    -1.2870     1.8990 h1         1 CRV       0.101200
     38 H102         1.3330    -2.4090     0.6480 h1         1 CRV       0.101200
     39 H121         3.5770    -1.3030     2.0590 h1         1 CRV       0.093700
     40 H122         3.8080    -2.0380     0.4600 h1         1 CRV       0.093700
     41 HN13        -0.8660    -3.4320    -0.9070 hn         1 CRV       0.327500
     42 H171        -3.4480    -5.1250    -2.1080 hn         1 CRV       0.396500
     43 H172        -4.5440    -3.9430    -2.2070 hn         1 CRV       0.396500
     44 H181        -2.4260    -6.5230     0.0590 hc         1 CRV       0.078700
     45 H182        -0.7520    -5.8350     0.2440 hc         1 CRV       0.078700
     46 H191        -1.4820    -4.5560     2.2780 hc         1 CRV       0.078700
     47 H192        -3.1640    -5.2290     2.1130 hc         1 CRV       0.078700
     48 H20         -4.4260     1.2140    -0.5870 ha         1 CRV       0.129000
     49 H21         -5.5970     3.0790     0.4830 ha         1 CRV       0.124500
     50 H23         -1.8380     4.6740     1.7940 ha         1 CRV       0.124500
     51 H24         -0.6710     2.8090     0.7180 ha         1 CRV       0.129000
     52 HO25        -5.3390     5.0070     1.7180 ho         1 CRV       0.466000
     53 H27          5.2760    -0.9290    -1.2240 ha         1 CRV       0.119500
     54 H28          7.1970     0.5610    -1.6250 ha         1 CRV       0.117000
     55 H29          7.9470     2.1210     0.1430 ha         1 CRV       0.114000
     56 H30          6.7560     2.1890     2.3100 ha         1 CRV       0.117000
     57 H31          4.8310     0.7030     2.7100 ha         1 CRV       0.119500
     58 H161        -4.1460    -3.1750    -0.0580 h1         1 CRV       0.044700
     59 H162        -4.4050    -4.9060     0.0700 h1         1 CRV       0.044700
@<TRIPOS>BOND
     1     1     2 1   
     2     1     5 1   
     3     1     6 1   
     4     1     7 1   
     5     2     3 1   
     6     2     4 1   
     7     2    34 1   
     8     3     8 1   
     9     3    35 1   
    10     4    19 ar  
    11     4    23 ar  
    12     8     9 1   
    13     8    10 1   
    14     8    36 1   
    15     9    13 1   
    16     9    14 2   
    17    10    11 1   
    18    10    37 1   
    19    10    38 1   
    20    11    12 1   
    21    11    31 2   
    22    11    32 2   
    23    12    25 1   
    24    12    39 1   
    25    12    40 1   
    26    13    15 1   
    27    13    41 1   
    28    15    17 1   
    29    15    18 1   
    30    15    33 1   
    31    16    33 1   
    32    16    42 1   
    33    16    43 1   
    34    17    18 1   
    35    17    44 1   
    36    17    45 1   
    37    18    46 1   
    38    18    47 1   
    39    19    20 ar  
    40    19    48 1   
    41    20    21 ar  
    42    20    49 1   
    43    21    22 ar  
    44    21    24 1   
    45    22    23 ar  
    46    22    50 1   
    47    23    51 1   
    48    24    52 1   
    49    25    26 ar  
    50    25    30 ar  
    51    26    27 ar  
    52    26    53 1   
    53    27    28 ar  
    54    27    54 1   
    55    28    29 ar  
    56    28    55 1   
    57    29    30 ar  
    58    29    56 1   
    59    30    57 1   
    60    33    58 1   
    61    33    59 1   
@<TRIPOS>SUBSTRUCTURE
     1 CRV         1 TEMP              0 ****  ****    0 ROOT
