@<TRIPOS>MOLECULE
CRW
   24    24     1     0     0
SMALL
bcc


@<TRIPOS>ATOM
      1 N1           5.8170     1.3700    -1.0550 n8         1 CRW      -0.855800
      2 CA1          4.9140     1.8530    -2.0800 c3         1 CRW       0.133200
      3 CB1          5.1060     1.2110    -3.4690 c3         1 CRW      -0.128100
      4 C1           3.5010     1.6270    -1.6450 cc         1 CRW       0.508900
      5 N2           3.1470     0.7390    -0.7860 nd         1 CRW      -0.645300
      6 N3           2.4510     2.2740    -2.2710 n          1 CRW      -0.377300
      7 C2           1.2860     1.8230    -1.7030 c          1 CRW       0.683700
      8 O2           0.1650     2.2150    -1.9440 o          1 CRW      -0.592500
      9 CA2          1.7530     0.7670    -0.7610 cd         1 CRW       0.021400
     10 CA3          2.5260     3.5050    -3.0140 c3         1 CRW      -0.061000
     11 C3           2.5910     4.7550    -2.1040 c          1 CRW       0.918600
     12 O3           2.6340     4.5540    -0.8800 o          1 CRW      -0.819800
     13 CB2          0.9560    -0.0040    -0.0240 c2         1 CRW      -0.162000
     14 OXT          2.5320     5.8410    -2.7070 o          1 CRW      -0.819800
     15 HN11         6.7670     1.5710    -1.3400 hn         1 CRW       0.333300
     16 HN12         5.7490     0.3620    -0.9870 hn         1 CRW       0.333300
     17 HA1          5.0750     2.9310    -2.1680 h1         1 CRW       0.101700
     18 HB11         4.7540     0.1790    -3.4820 hc         1 CRW       0.036367
     19 HB12         4.5930     1.7590    -4.2590 hc         1 CRW       0.036367
     20 HB13         6.1670     1.2040    -3.7200 hc         1 CRW       0.036367
     21 HA31         1.6530     3.5650    -3.6650 h1         1 CRW       0.041700
     22 HA32         3.3890     3.4830    -3.6810 h1         1 CRW       0.041700
     23 HB21         1.3590    -0.7530     0.6430 ha         1 CRW       0.117000
     24 HB22        -0.1190     0.0970    -0.0820 ha         1 CRW       0.117000
@<TRIPOS>BOND
     1     1     2 1   
     2     1    15 1   
     3     1    16 1   
     4     2     3 1   
     5     2     4 1   
     6     2    17 1   
     7     3    18 1   
     8     3    19 1   
     9     3    20 1   
    10     4     5 2   
    11     4     6 1   
    12     5     9 1   
    13     6     7 1   
    14     6    10 1   
    15     7     8 2   
    16     7     9 1   
    17     9    13 2   
    18    10    11 1   
    19    10    21 1   
    20    10    22 1   
    21    11    12 1   
    22    11    14 1   
    23    13    23 1   
    24    13    24 1   
@<TRIPOS>SUBSTRUCTURE
     1 CRW         1 TEMP              0 ****  ****    0 ROOT
