@<TRIPOS>MOLECULE
CRW
   24    24     1     0     0
SMALL
No Charge or Current Charge


@<TRIPOS>ATOM
      1 N1           5.9220     1.4140    -1.0320 n8         1 CRW      -0.966200
      2 CA1          4.9100     1.8180    -2.0620 c3         1 CRW       0.133200
      3 CB1          5.2640     1.1250    -3.3940 c3         1 CRW      -0.128100
      4 C1           3.4380     1.5790    -1.6640 cc         1 CRW       0.508900
      5 N2           3.0520     0.5470    -0.8890 nd         1 CRW      -0.645300
      6 N3           2.3860     2.3760    -2.1140 n          1 CRW      -0.310300
      7 C2           1.1950     1.9040    -1.6180 c          1 CRW       0.541200
      8 O2           0.0630     2.3440    -1.7850 o          1 CRW      -0.517000
      9 CA2          1.6840     0.7420    -0.8510 cd         1 CRW       0.021400
     10 CA3          2.4780     3.5840    -2.9800 c3         1 CRW      -0.061000
     11 C3           2.6050     4.9130    -2.2010 c          1 CRW       0.708000
     12 O3           3.5800     5.0660    -1.4800 o          1 CRW      -0.714500
     13 CB2          0.8550    -0.0840    -0.1560 c2         1 CRW      -0.262000
     14 OXT          1.7150     5.7420    -2.3200 o          1 CRW      -0.714500
     15 HN11         6.8540     1.3960    -1.4610 hn         1 CRW       0.388500
     16 HN12         5.7470     0.4340    -0.7740 hn         1 CRW       0.388500
     17 HA1          5.0300     2.9000    -2.2190 h1         1 CRW       0.101700
     18 HB11         5.1710     0.0350    -3.3060 hc         1 CRW       0.036367
     19 HB12         4.5890     1.4580    -4.1910 hc         1 CRW       0.036367
     20 HB13         6.2900     1.3630    -3.7010 hc         1 CRW       0.036367
     21 HA31         1.5830     3.6370    -3.6120 h1         1 CRW       0.041700
     22 HA32         3.3430     3.4970    -3.6470 h1         1 CRW       0.041700
     23 HB21         1.2360    -0.9370     0.4040 ha         1 CRW       0.167000
     24 HB22        -0.2230     0.0740    -0.1300 ha         1 CRW       0.167000
@<TRIPOS>BOND
     1     1     2 1   
     2     1    15 1   
     3     1    16 1   
     4     2     3 1   
     5     2     4 1   
     6     2    17 1   
     7     3    18 1   
     8     3    19 1   
     9     3    20 1   
    10     4     5 2   
    11     4     6 1   
    12     5     9 1   
    13     6     7 1   
    14     6    10 1   
    15     7     8 2   
    16     7     9 1   
    17     9    13 2   
    18    10    11 1   
    19    10    21 1   
    20    10    22 1   
    21    11    12 1   
    22    11    14 1   
    23    13    23 1   
    24    13    24 1   
@<TRIPOS>SUBSTRUCTURE
     1 CRW         1 TEMP              0 ****  ****    0 ROOT
