@<TRIPOS>MOLECULE
CRX
   27    27     1     0     0
SMALL
No Charge or Current Charge


@<TRIPOS>ATOM
      1 N1           3.0090    -1.5550     3.8950 n8         1 CRX      -1.015200
      2 CA1          3.8360    -0.3210     3.6670 c3         1 CRX       0.116500
      3 CB1          5.2720    -0.7590     3.2850 c3         1 CRX      -0.087100
      4 C1           3.1700     0.7460     2.6730 c5         1 CRX       0.588600
      5 N2           2.9840     0.1690     1.3330 nu         1 CRX      -0.833200
      6 N3           1.8690     1.2130     3.1580 n          1 CRX      -0.402800
      7 C2           0.8890     0.8310     2.2600 c          1 CRX       0.576200
      8 O2          -0.3180     1.0040     2.3940 o          1 CRX      -0.534000
      9 CA2          1.5890     0.0990     1.1470 ce         1 CRX       0.058800
     10 CA3          1.5550     1.8240     4.4900 c3         1 CRX      -0.052000
     11 C3           2.3630     3.0900     4.8720 c          1 CRX       0.711000
     12 O3           1.7510     4.1040     5.1690 o          1 CRX      -0.715500
     13 CB2          1.0030    -0.6470     0.1920 c2         1 CRX      -0.397000
     14 O1           4.0300     1.8340     2.5070 oh         1 CRX      -0.625000
     15 OXT          3.5830     3.0320     4.8000 o          1 CRX      -0.715500
     16 HN11         2.7390    -1.9410     2.9820 hn         1 CRX       0.408500
     17 HN12         2.1070    -1.2780     4.3000 hn         1 CRX       0.408500
     18 HA1          3.9220     0.1800     4.6420 h1         1 CRX       0.070700
     19 HB11         5.2890    -1.2590     2.3100 hc         1 CRX       0.035700
     20 HB12         5.9460     0.1040     3.2400 hc         1 CRX       0.035700
     21 HB13         5.6750    -1.4540     4.0320 hc         1 CRX       0.035700
     22 HN2          3.5530    -0.6160     1.0250 hn         1 CRX       0.474000
     23 HA31         1.7340     1.0730     5.2690 h1         1 CRX       0.032700
     24 HA32         0.4890     2.0840     4.5290 h1         1 CRX       0.032700
     25 HB21         1.5860    -1.1960    -0.5470 ha         1 CRX       0.168000
     26 HB22        -0.0820    -0.7240     0.1210 ha         1 CRX       0.168000
     27 HO1          3.9480     2.3210     3.3680 ho         1 CRX       0.454000
@<TRIPOS>BOND
     1     1     2 1   
     2     1    16 1   
     3     1    17 1   
     4     2     3 1   
     5     2     4 1   
     6     2    18 1   
     7     3    19 1   
     8     3    20 1   
     9     3    21 1   
    10     4     5 1   
    11     4     6 1   
    12     4    14 1   
    13     5     9 1   
    14     5    22 1   
    15     6     7 1   
    16     6    10 1   
    17     7     8 2   
    18     7     9 1   
    19     9    13 2   
    20    10    11 1   
    21    10    23 1   
    22    10    24 1   
    23    11    12 1   
    24    11    15 1   
    25    13    25 1   
    26    13    26 1   
    27    14    27 1   
@<TRIPOS>SUBSTRUCTURE
     1 CRX         1 TEMP              0 ****  ****    0 ROOT
