@<TRIPOS>MOLECULE
CRX
   27    27     1     0     0
SMALL
bcc


@<TRIPOS>ATOM
      1 N1           2.9990    -1.6530     3.8340 n8         1 CRX      -0.904800
      2 CA1          3.8880    -0.5220     3.6960 c3         1 CRX       0.116500
      3 CB1          5.2220    -0.9890     3.1280 c3         1 CRX      -0.087100
      4 C1           3.2860     0.6510     2.8670 c5         1 CRX       0.565400
      5 N2           2.9500     0.2680     1.5270 nu         1 CRX      -0.778000
      6 N3           1.9860     1.0340     3.3940 n          1 CRX      -0.469800
      7 C2           0.9760     0.8160     2.5360 c          1 CRX       0.718700
      8 O2          -0.2070     1.0380     2.7190 o          1 CRX      -0.609500
      9 CA2          1.5930     0.2010     1.3250 ce         1 CRX       0.058800
     10 CA3          1.8470     1.8350     4.5790 c3         1 CRX      -0.052000
     11 C3           1.7440     3.3560     4.3060 c          1 CRX       0.921600
     12 O3           1.5550     3.7220     3.1370 o          1 CRX      -0.820800
     13 CB2          0.9040    -0.2850     0.2920 c2         1 CRX      -0.297000
     14 O1           4.1620     1.7320     2.8180 oh         1 CRX      -0.562800
     15 OXT          1.8370     4.0640     5.3280 o          1 CRX      -0.820800
     16 HN11         2.7730    -2.0500     2.9300 hn         1 CRX       0.353300
     17 HN12         2.1260    -1.3830     4.2680 hn         1 CRX       0.353300
     18 HA1          4.0720    -0.1340     4.7070 h1         1 CRX       0.070700
     19 HB11         5.1100    -1.4190     2.1300 hc         1 CRX       0.035700
     20 HB12         5.9540    -0.1860     3.0660 hc         1 CRX       0.035700
     21 HB13         5.6360    -1.7670     3.7680 hc         1 CRX       0.035700
     22 HN2          3.5720    -0.3370     1.0150 hn         1 CRX       0.418800
     23 HA31         2.6830     1.6370     5.2520 h1         1 CRX       0.032700
     24 HA32         0.9490     1.5160     5.1140 h1         1 CRX       0.032700
     25 HB21         1.3850    -0.7330    -0.5660 ha         1 CRX       0.118000
     26 HB22        -0.1750    -0.2430     0.3050 ha         1 CRX       0.118000
     27 HO1          4.6660     1.7890     3.6380 ho         1 CRX       0.415000
@<TRIPOS>BOND
     1     1     2 1   
     2     1    16 1   
     3     1    17 1   
     4     2     3 1   
     5     2     4 1   
     6     2    18 1   
     7     3    19 1   
     8     3    20 1   
     9     3    21 1   
    10     4     5 1   
    11     4     6 1   
    12     4    14 1   
    13     5     9 1   
    14     5    22 1   
    15     6     7 1   
    16     6    10 1   
    17     7     8 2   
    18     7     9 1   
    19     9    13 2   
    20    10    11 1   
    21    10    23 1   
    22    10    24 1   
    23    11    12 1   
    24    11    15 1   
    25    13    25 1   
    26    13    26 1   
    27    14    27 1   
@<TRIPOS>SUBSTRUCTURE
     1 CRX         1 TEMP              0 ****  ****    0 ROOT
