@<TRIPOS>MOLECULE
CRY
   14    13     1     0     0
SMALL
bcc


@<TRIPOS>ATOM
      1 O1           0.0720    -0.2680     2.3800 oh         1 CRY      -0.578300
      2 O2          -1.3710     0.1960    -0.0190 oh         1 CRY      -0.560800
      3 O3           0.1210    -0.2910    -2.3810 oh         1 CRY      -0.578300
      4 C1           0.7060     0.2780     1.2480 c3         1 CRY       0.105400
      5 C2          -0.0180    -0.1970    -0.0020 c3         1 CRY       0.141100
      6 C3           0.7330     0.2620    -1.2410 c3         1 CRY       0.105400
      7 HO1          0.5410     0.0420     3.1600 ho         1 CRY       0.403000
      8 HO2         -1.4110     1.1590    -0.0240 ho         1 CRY       0.393000
      9 HO3          0.6080     0.0090    -3.1530 ho         1 CRY       0.403000
     10 H11          0.7030     1.3780     1.2740 h1         1 CRY       0.017200
     11 H12          1.7570    -0.0320     1.1830 h1         1 CRY       0.017200
     12 H21         -0.0290    -1.2920     0.0050 h1         1 CRY       0.098700
     13 H31          0.7360     1.3620    -1.2770 h1         1 CRY       0.017200
     14 H32          1.7810    -0.0510    -1.1510 h1         1 CRY       0.017200
@<TRIPOS>BOND
     1     1     4 1   
     2     1     7 1   
     3     2     5 1   
     4     2     8 1   
     5     3     6 1   
     6     3     9 1   
     7     4     5 1   
     8     4    10 1   
     9     4    11 1   
    10     5     6 1   
    11     5    12 1   
    12     6    13 1   
    13     6    14 1   
@<TRIPOS>SUBSTRUCTURE
     1 CRY         1 TEMP              0 ****  ****    0 ROOT
