@<TRIPOS>MOLECULE
CRY
   14    13     1     0     0
SMALL
No Charge or Current Charge


@<TRIPOS>ATOM
      1 O1           0.0830    -0.2760     2.4780 oh         1 CRY      -0.700500
      2 O2          -1.4030     0.2220    -0.0190 oh         1 CRY      -0.623000
      3 O3           0.1360    -0.3020    -2.4780 oh         1 CRY      -0.700500
      4 C1           0.6920     0.2620     1.2890 c3         1 CRY       0.128600
      5 C2          -0.0280    -0.2330    -0.0020 c3         1 CRY       0.164300
      6 C3           0.7200     0.2480    -1.2820 c3         1 CRY       0.128600
      7 HO1          0.5700     0.1000     3.2490 ho         1 CRY       0.502000
      8 HO2         -1.3780     1.2030    -0.0250 ho         1 CRY       0.432000
      9 HO3          0.6400     0.0650    -3.2420 ho         1 CRY       0.502000
     10 H11          0.6730     1.3600     1.3150 h1         1 CRY       0.017200
     11 H12          1.7460    -0.0460     1.2430 h1         1 CRY       0.017200
     12 H21          0.0040    -1.3320     0.0050 h1         1 CRY       0.098700
     13 H31          0.7020     1.3450    -1.3200 h1         1 CRY       0.017200
     14 H32          1.7720    -0.0590    -1.2100 h1         1 CRY       0.017200
@<TRIPOS>BOND
     1     1     4 1   
     2     1     7 1   
     3     2     5 1   
     4     2     8 1   
     5     3     6 1   
     6     3     9 1   
     7     4     5 1   
     8     4    10 1   
     9     4    11 1   
    10     5     6 1   
    11     5    12 1   
    12     6    13 1   
    13     6    14 1   
@<TRIPOS>SUBSTRUCTURE
     1 CRY         1 TEMP              0 ****  ****    0 ROOT
