@<TRIPOS>MOLECULE
CRZ
   33    35     1     0     0
SMALL
No Charge or Current Charge


@<TRIPOS>ATOM
      1 O19         -1.0590     0.8010     4.9500 o          1 CRZ      -0.736000
      2 C1           0.0240     0.3840     4.5720 c          1 CRZ       0.719000
      3 O18          1.0940     0.8510     4.9320 o          1 CRZ      -0.736000
      4 C2           0.0420    -0.7520     3.5320 c3         1 CRZ      -0.208400
      5 C3           0.0160    -0.1670     2.0990 c3         1 CRZ      -0.076400
      6 C4           0.0320    -1.2530     1.0030 c3         1 CRZ       0.065600
      7 N5           0.0070    -0.6910    -0.3580 na         1 CRZ      -0.080600
      8 C6          -1.1760    -0.4050    -1.0580 ca         1 CRZ       0.011300
      9 C17         -2.5260    -0.5640    -0.7180 ca         1 CRZ      -0.129500
     10 C7          -0.7590     0.1270    -2.2780 cp         1 CRZ      -0.095000
     11 C14         -1.7110     0.5290    -3.2340 ca         1 CRZ      -0.059000
     12 C15         -3.0800     0.3770    -2.9200 ca         1 CRZ      -0.160000
     13 C16         -3.4850    -0.1630    -1.6740 ca         1 CRZ      -0.091000
     14 C8           0.7020     0.1600    -2.2900 cp         1 CRZ      -0.095000
     15 C9           1.1640    -0.3520    -1.0790 ca         1 CRZ       0.011300
     16 C10          2.5250    -0.4500    -0.7630 ca         1 CRZ      -0.129500
     17 C13          1.6180     0.6040    -3.2630 ca         1 CRZ      -0.059000
     18 C12          2.9980     0.5150    -2.9740 ca         1 CRZ      -0.160000
     19 C11          3.4490    -0.0070    -1.7350 ca         1 CRZ      -0.091000
     20 H21         -0.8620    -1.3670     3.6210 hc         1 CRZ       0.015700
     21 H22          0.9750    -1.3250     3.6050 hc         1 CRZ       0.015700
     22 H31          0.8820     0.4930     1.9600 hc         1 CRZ       0.055200
     23 H32         -0.8810     0.4530     1.9750 hc         1 CRZ       0.055200
     24 H41         -0.8360    -1.9120     1.1290 h1         1 CRZ       0.044700
     25 H42          0.9310    -1.8720     1.1130 h1         1 CRZ       0.044700
     26 H17         -2.8270    -0.9760     0.2410 ha         1 CRZ       0.127000
     27 H14         -1.3990     0.9460    -4.1880 ha         1 CRZ       0.104000
     28 H15         -3.8330     0.6810    -3.6440 ha         1 CRZ       0.100000
     29 H16         -4.5440    -0.2700    -1.4500 ha         1 CRZ       0.102500
     30 H10          2.8620    -0.8480     0.1910 ha         1 CRZ       0.127000
     31 H13          1.2710     1.0070    -4.2120 ha         1 CRZ       0.104000
     32 H12          3.7230     0.8520    -3.7110 ha         1 CRZ       0.100000
     33 H11          4.5160    -0.0650    -1.5300 ha         1 CRZ       0.102500
@<TRIPOS>BOND
     1     1     2 1   
     2     2     3 1   
     3     2     4 1   
     4     4     5 1   
     5     4    20 1   
     6     4    21 1   
     7     5     6 1   
     8     5    22 1   
     9     5    23 1   
    10     6     7 1   
    11     6    24 1   
    12     6    25 1   
    13     7     8 1   
    14     7    15 1   
    15     8     9 ar  
    16     8    10 ar  
    17     9    13 ar  
    18     9    26 1   
    19    10    11 ar  
    20    10    14 1   
    21    11    12 ar  
    22    11    27 1   
    23    12    13 ar  
    24    12    28 1   
    25    13    29 1   
    26    14    15 ar  
    27    14    17 ar  
    28    15    16 ar  
    29    16    19 ar  
    30    16    30 1   
    31    17    18 ar  
    32    17    31 1   
    33    18    19 ar  
    34    18    32 1   
    35    19    33 1   
@<TRIPOS>SUBSTRUCTURE
     1 CRZ         1 TEMP              0 ****  ****    0 ROOT
