@<TRIPOS>MOLECULE
CRZ
   33    35     1     0     0
SMALL
bcc


@<TRIPOS>ATOM
      1 O19         -0.0770    -0.1660     5.7690 o          1 CRZ      -0.841300
      2 C1           0.0000     0.3210     4.6210 c          1 CRZ       0.929600
      3 O18          0.0910     1.5300     4.3350 o          1 CRZ      -0.841300
      4 C2          -0.0100    -0.6930     3.4620 c3         1 CRZ      -0.208400
      5 C3          -0.0050    -0.0960     2.0660 c3         1 CRZ      -0.076400
      6 C4          -0.0090    -1.1860     1.0010 c3         1 CRZ       0.036300
      7 N5          -0.0070    -0.6730    -0.3500 na         1 CRZ      -0.051300
      8 C6          -1.1220    -0.3530    -1.0860 ca         1 CRZ       0.011300
      9 C17         -2.4680    -0.4840    -0.7510 ca         1 CRZ      -0.147500
     10 C7          -0.7230     0.1640    -2.3360 cp         1 CRZ      -0.095000
     11 C14         -1.6850     0.5450    -3.2680 ca         1 CRZ      -0.077000
     12 C15         -3.0240     0.4100    -2.9430 ca         1 CRZ      -0.178000
     13 C16         -3.4050    -0.0980    -1.6960 ca         1 CRZ      -0.109000
     14 C8           0.7160     0.1660    -2.3320 cp         1 CRZ      -0.095000
     15 C9           1.1110    -0.3500    -1.0800 ca         1 CRZ       0.011300
     16 C10          2.4550    -0.4780    -0.7400 ca         1 CRZ      -0.147500
     17 C13          1.6810     0.5480    -3.2610 ca         1 CRZ      -0.077000
     18 C12          3.0190     0.4160    -2.9290 ca         1 CRZ      -0.178000
     19 C11          3.3960    -0.0910    -1.6800 ca         1 CRZ      -0.109000
     20 H21         -0.8820    -1.3470     3.5830 hc         1 CRZ       0.015700
     21 H22          0.8560    -1.3560     3.5830 hc         1 CRZ       0.015700
     22 H31          0.8730     0.5400     1.9310 hc         1 CRZ       0.055200
     23 H32         -0.8770     0.5480     1.9270 hc         1 CRZ       0.055200
     24 H41         -0.8830    -1.8310     1.1170 h1         1 CRZ       0.044700
     25 H42          0.8580    -1.8390     1.1180 h1         1 CRZ       0.044700
     26 H17         -2.7830    -0.8690     0.2090 ha         1 CRZ       0.145000
     27 H14         -1.3890     0.9410    -4.2320 ha         1 CRZ       0.122000
     28 H15         -3.7840     0.7010    -3.6560 ha         1 CRZ       0.118000
     29 H16         -4.4570    -0.1900    -1.4590 ha         1 CRZ       0.120500
     30 H10          2.7670    -0.8620     0.2230 ha         1 CRZ       0.145000
     31 H13          1.3900     0.9430    -4.2260 ha         1 CRZ       0.122000
     32 H12          3.7820     0.7080    -3.6390 ha         1 CRZ       0.118000
     33 H11          4.4470    -0.1800    -1.4380 ha         1 CRZ       0.120500
@<TRIPOS>BOND
     1     1     2 1   
     2     2     3 1   
     3     2     4 1   
     4     4     5 1   
     5     4    20 1   
     6     4    21 1   
     7     5     6 1   
     8     5    22 1   
     9     5    23 1   
    10     6     7 1   
    11     6    24 1   
    12     6    25 1   
    13     7     8 1   
    14     7    15 1   
    15     8     9 ar  
    16     8    10 ar  
    17     9    13 ar  
    18     9    26 1   
    19    10    11 ar  
    20    10    14 1   
    21    11    12 ar  
    22    11    27 1   
    23    12    13 ar  
    24    12    28 1   
    25    13    29 1   
    26    14    15 ar  
    27    14    17 ar  
    28    15    16 ar  
    29    16    19 ar  
    30    16    30 1   
    31    17    18 ar  
    32    17    31 1   
    33    18    19 ar  
    34    18    32 1   
    35    19    33 1   
@<TRIPOS>SUBSTRUCTURE
     1 CRZ         1 TEMP              0 ****  ****    0 ROOT
