@<TRIPOS>MOLECULE
CS0
   20    19     1     0     0
SMALL
No Charge or Current Charge


@<TRIPOS>ATOM
      1 N            1.7580     1.8190     0.1700 n8         1 CS0      -0.991200
      2 CA           1.7270     0.3240     0.4130 c3         1 CS0       0.022500
      3 C            2.9680    -0.5080    -0.0980 c          1 CS0       0.723000
      4 O            3.2090    -0.5220    -1.3000 o          1 CS0      -0.721500
      5 CB           0.4170    -0.2950    -0.1430 c3         1 CS0       0.081600
      6 SG          -1.0900     0.5640     0.5300 ss         1 CS0      -0.525000
      7 C1          -2.4190    -0.4250    -0.3080 c3         1 CS0       0.061600
      8 C2          -3.8250     0.0820     0.0810 c3         1 CS0       0.169600
      9 O2          -4.8330    -0.6980    -0.5780 oh         1 CS0      -0.667000
     10 HN           1.8690     1.9850    -0.8380 hn         1 CS0       0.386500
     11 HNA          0.8150     2.1770     0.3690 hn         1 CS0       0.386500
     12 HA           1.6970     0.1850     1.5020 h1         1 CS0       0.059700
     13 OXT          3.6750    -1.0660     0.7320 o          1 CS0      -0.721500
     14 HB           0.4100    -0.2270    -1.2390 h1         1 CS0       0.061700
     15 HBA          0.3750    -1.3580     0.1300 h1         1 CS0       0.061700
     16 H1          -2.2910    -0.3480    -1.3950 h1         1 CS0       0.063700
     17 H1A         -2.3180    -1.4790    -0.0190 h1         1 CS0       0.063700
     18 H2          -3.9430     0.0120     1.1710 h1         1 CS0       0.026200
     19 H2A         -3.9170     1.1390    -0.2010 h1         1 CS0       0.026200
     20 HO2         -5.7030    -0.3360    -0.2970 ho         1 CS0       0.432000
@<TRIPOS>BOND
     1     1     2 1   
     2     1    10 1   
     3     1    11 1   
     4     2     3 1   
     5     2     5 1   
     6     2    12 1   
     7     3     4 1   
     8     3    13 1   
     9     5     6 1   
    10     5    14 1   
    11     5    15 1   
    12     6     7 1   
    13     7     8 1   
    14     7    16 1   
    15     7    17 1   
    16     8     9 1   
    17     8    18 1   
    18     8    19 1   
    19     9    20 1   
@<TRIPOS>SUBSTRUCTURE
     1 CS0         1 TEMP              0 ****  ****    0 ROOT
