@<TRIPOS>MOLECULE
CS0
   20    19     1     0     0
SMALL
bcc


@<TRIPOS>ATOM
      1 N            1.6640     1.7710    -0.0820 n8         1 CS0      -0.880800
      2 CA           1.6380     0.4080     0.4110 c3         1 CS0       0.022500
      3 C            2.8780    -0.3900    -0.0730 c          1 CS0       0.933600
      4 O            3.4910     0.0570    -1.0600 o          1 CS0      -0.826800
      5 CB           0.3930    -0.3890    -0.0040 c3         1 CS0       0.033700
      6 SG          -1.1000     0.3530     0.7260 ss         1 CS0      -0.429200
      7 C1          -2.3800    -0.4280    -0.2950 c3         1 CS0       0.013700
      8 C2          -3.7440     0.0620     0.1540 c3         1 CS0       0.146400
      9 O2          -4.7130    -0.5580    -0.6610 oh         1 CS0      -0.604800
     10 HN           1.9330     1.7480    -1.0570 hn         1 CS0       0.331300
     11 HNA          0.7350     2.1740    -0.0410 hn         1 CS0       0.331300
     12 HA           1.6710     0.4240     1.5070 h1         1 CS0       0.059700
     13 OXT          3.1280    -1.4360     0.5560 o          1 CS0      -0.826800
     14 HB           0.2890    -0.3750    -1.0930 h1         1 CS0       0.061700
     15 HBA          0.4730    -1.4260     0.3220 h1         1 CS0       0.061700
     16 H1          -2.2090    -0.1710    -1.3430 h1         1 CS0       0.063700
     17 H1A         -2.3140    -1.5120    -0.1910 h1         1 CS0       0.063700
     18 H2          -3.8880    -0.1850     1.2130 h1         1 CS0       0.026200
     19 H2A         -3.7840     1.1550     0.0690 h1         1 CS0       0.026200
     20 HO2         -5.5800    -0.2560    -0.3770 ho         1 CS0       0.393000
@<TRIPOS>BOND
     1     1     2 1   
     2     1    10 1   
     3     1    11 1   
     4     2     3 1   
     5     2     5 1   
     6     2    12 1   
     7     3     4 1   
     8     3    13 1   
     9     5     6 1   
    10     5    14 1   
    11     5    15 1   
    12     6     7 1   
    13     7     8 1   
    14     7    16 1   
    15     7    17 1   
    16     8     9 1   
    17     8    18 1   
    18     8    19 1   
    19     9    20 1   
@<TRIPOS>SUBSTRUCTURE
     1 CS0         1 TEMP              0 ****  ****    0 ROOT
