@<TRIPOS>MOLECULE
CS1
   26    26     1     0     0
SMALL
bcc


@<TRIPOS>ATOM
      1 O            3.8110     7.1850     0.2400 o          1 CS1      -0.829300
      2 C            4.8110     7.9200     0.1720 c          1 CS1       0.941600
      3 CA           6.2010     7.2430     0.2590 c3         1 CS1       0.016500
      4 N            6.9880     7.6620    -0.8940 n8         1 CS1      -0.870800
      5 CB           6.9170     7.5770     1.5700 c3         1 CS1       0.024700
      6 SG           6.1960     6.8620     3.0810 ss         1 CS1      -0.295100
      7 SD           4.5690     8.0730     3.4990 ss         1 CS1      -0.048900
      8 CE           5.3050     9.5040     4.2240 ca         1 CS1      -0.098100
      9 C5           5.5400    10.6130     3.4130 ca         1 CS1      -0.020000
     10 C4           6.0750    11.7790     3.9330 ca         1 CS1      -0.208000
     11 C3           6.3780    11.8250     5.2910 ca         1 CS1      -0.071000
     12 C2           6.1530    10.7350     6.1090 ca         1 CS1      -0.240000
     13 C1           5.6090     9.5450     5.6000 ca         1 CS1       0.214600
     14 N1           5.3500     8.4930     6.4310 nv         1 CS1      -0.840200
     15 OXT          4.8300     9.1620     0.0260 o          1 CS1      -0.829300
     16 HA           6.0740     6.1580     0.2120 h1         1 CS1       0.059700
     17 H            7.0270     8.6750    -0.9040 hn         1 CS1       0.318800
     18 H2           7.9430     7.3370    -0.8040 hn         1 CS1       0.318800
     19 HB2          7.9260     7.1510     1.5560 h1         1 CS1       0.048200
     20 HB3          7.0280     8.6550     1.7010 h1         1 CS1       0.048200
     21 H5           5.2990    10.5400     2.3600 ha         1 CS1       0.187000
     22 H4           6.2530    12.6340     3.2950 ha         1 CS1       0.129000
     23 H3           6.7980    12.7260     5.7210 ha         1 CS1       0.111000
     24 HC2          6.3960    10.7920     7.1640 ha         1 CS1       0.113000
     25 HN11         5.2230     7.5850     6.0160 hn         1 CS1       0.409300
     26 HN12         5.8360     8.4760     7.3110 hn         1 CS1       0.409300
@<TRIPOS>BOND
     1     1     2 1   
     2     2     3 1   
     3     2    15 1   
     4     3     4 1   
     5     3     5 1   
     6     3    16 1   
     7     4    17 1   
     8     4    18 1   
     9     5     6 1   
    10     5    19 1   
    11     5    20 1   
    12     6     7 1   
    13     7     8 1   
    14     8     9 ar  
    15     8    13 ar  
    16     9    10 ar  
    17     9    21 1   
    18    10    11 ar  
    19    10    22 1   
    20    11    12 ar  
    21    11    23 1   
    22    12    13 ar  
    23    12    24 1   
    24    13    14 1   
    25    14    25 1   
    26    14    26 1   
@<TRIPOS>SUBSTRUCTURE
     1 CS1         1 TEMP              0 ****  ****    0 ROOT
