@<TRIPOS>MOLECULE
CS1
   26    26     1     0     0
SMALL
No Charge or Current Charge


@<TRIPOS>ATOM
      1 O            3.8740     7.5310    -0.1640 o          1 CS1      -0.829300
      2 C            4.8870     8.1410     0.1680 c          1 CS1       0.941600
      3 CA           6.2230     7.3190     0.4020 c3         1 CS1       0.016500
      4 N            7.3510     7.5610    -0.5810 n8         1 CS1      -0.870800
      5 CB           6.7490     7.4840     1.8510 c3         1 CS1       0.024700
      6 SG           5.6300     6.7010     3.1010 ss         1 CS1      -0.295100
      7 SD           4.1730     8.1580     3.4840 ss         1 CS1      -0.048900
      8 CE           5.0620     9.5680     4.1500 ca         1 CS1      -0.098100
      9 C5           5.0410    10.7780     3.4310 ca         1 CS1      -0.020000
     10 C4           5.7190    11.9060     3.9260 ca         1 CS1      -0.208000
     11 C3           6.4190    11.8310     5.1410 ca         1 CS1      -0.071000
     12 C2           6.4400    10.6240     5.8600 ca         1 CS1      -0.240000
     13 C1           5.7680     9.4950     5.3720 ca         1 CS1       0.214600
     14 N1           5.8110     8.3360     6.0980 nv         1 CS1      -0.840200
     15 OXT          4.9480     9.3680     0.1390 o          1 CS1      -0.829300
     16 HA           5.9470     6.2620     0.2900 h1         1 CS1       0.059700
     17 H            7.6040     8.5550    -0.5620 hn         1 CS1       0.318800
     18 H2           8.1940     7.0690    -0.2680 hn         1 CS1       0.318800
     19 HB2          7.7220     6.9840     1.9350 h1         1 CS1       0.048200
     20 HB3          6.8900     8.5450     2.0950 h1         1 CS1       0.048200
     21 H5           4.4990    10.8400     2.4880 ha         1 CS1       0.187000
     22 H4           5.7010    12.8390     3.3670 ha         1 CS1       0.129000
     23 H3           6.9440    12.7050     5.5240 ha         1 CS1       0.111000
     24 HC2          6.9830    10.5720     6.8000 ha         1 CS1       0.113000
     25 HN11         5.5090     7.4770     5.6480 hn         1 CS1       0.409300
     26 HN12         6.4460     8.2570     6.8860 hn         1 CS1       0.409300
@<TRIPOS>BOND
     1     1     2 1   
     2     2     3 1   
     3     2    15 1   
     4     3     4 1   
     5     3     5 1   
     6     3    16 1   
     7     4    17 1   
     8     4    18 1   
     9     5     6 1   
    10     5    19 1   
    11     5    20 1   
    12     6     7 1   
    13     7     8 1   
    14     8     9 ar  
    15     8    13 ar  
    16     9    10 ar  
    17     9    21 1   
    18    10    11 ar  
    19    10    22 1   
    20    11    12 ar  
    21    11    23 1   
    22    12    13 ar  
    23    12    24 1   
    24    13    14 1   
    25    14    25 1   
    26    14    26 1   
@<TRIPOS>SUBSTRUCTURE
     1 CS1         1 TEMP              0 ****  ****    0 ROOT
