@<TRIPOS>MOLECULE
CS2
   24    23     1     0     0
SMALL
bcc


@<TRIPOS>ATOM
      1 C2           1.5900    -0.6380    -0.2310 c3         1 CS2      -0.036900
      2 C3           0.3560     0.2390     0.0470 c3         1 CS2       0.133100
      3 O1A          2.9950     1.2820    -0.4190 o          1 CS2      -0.817800
      4 C1           2.8810     0.1410     0.0900 c          1 CS2       0.899600
      5 O1B          3.6970    -0.4300     0.8330 o          1 CS2      -0.817800
      6 O2           1.5430    -1.8180     0.5240 oh         1 CS2      -0.634800
      7 O3           0.3960     1.4050    -0.7420 oh         1 CS2      -0.671800
      8 C4          -0.9490    -0.4880    -0.2750 c3         1 CS2       0.116100
      9 O4          -1.0060    -0.8260    -1.6440 oh         1 CS2      -0.607800
     10 C5          -2.1910     0.3280     0.1350 c3         1 CS2       0.115100
     11 O5          -2.1140     0.7550     1.4770 oh         1 CS2      -0.575800
     12 C6          -3.4590    -0.4710    -0.1190 c3         1 CS2       0.098400
     13 O6          -4.5780     0.3380     0.1670 oh         1 CS2      -0.591800
     14 H2           1.6100    -0.8720    -1.3070 h1         1 CS2       0.045700
     15 H3           0.3620     0.4780     1.1210 h1         1 CS2       0.042700
     16 HO2          2.3810    -1.8070     1.0180 ho         1 CS2       0.432000
     17 HO3          1.3500     1.6400    -0.7900 ho         1 CS2       0.473000
     18 H4          -0.9620    -1.4320     0.2820 h1         1 CS2       0.070700
     19 HO4         -0.7710    -0.0300    -2.1380 ho         1 CS2       0.416000
     20 H5          -2.2230     1.2420    -0.4670 h1         1 CS2       0.093700
     21 HO5         -2.1140    -0.0230     2.0460 ho         1 CS2       0.388000
     22 H61         -3.4670    -0.8160    -1.1580 h1         1 CS2       0.022200
     23 H62         -3.4420    -1.3710     0.5150 h1         1 CS2       0.022200
     24 HO6         -5.3680    -0.1820     0.0010 ho         1 CS2       0.385000
@<TRIPOS>BOND
     1     1     2 1   
     2     1     4 1   
     3     1     6 1   
     4     1    14 1   
     5     2     7 1   
     6     2     8 1   
     7     2    15 1   
     8     3     4 1   
     9     4     5 1   
    10     6    16 1   
    11     7    17 1   
    12     8     9 1   
    13     8    10 1   
    14     8    18 1   
    15     9    19 1   
    16    10    11 1   
    17    10    12 1   
    18    10    20 1   
    19    11    21 1   
    20    12    13 1   
    21    12    22 1   
    22    12    23 1   
    23    13    24 1   
@<TRIPOS>SUBSTRUCTURE
     1 CS2         1 TEMP              0 ****  ****    0 ROOT
