@<TRIPOS>MOLECULE
CS2
   24    23     1     0     0
SMALL
No Charge or Current Charge


@<TRIPOS>ATOM
      1 C2           1.6800    -0.6540    -0.1640 c3         1 CS2      -0.013700
      2 C3           0.3990     0.2410    -0.0540 c3         1 CS2       0.156300
      3 O1A          3.0660     1.2940    -0.5200 o          1 CS2      -0.712500
      4 C1           3.0070     0.1780    -0.0160 c          1 CS2       0.689000
      5 O1B          3.8930    -0.3020     0.6800 o          1 CS2      -0.712500
      6 O2           1.6340    -1.7430     0.8050 oh         1 CS2      -0.757000
      7 O3           0.5040     1.3280    -1.0010 oh         1 CS2      -0.794000
      8 C4          -0.9360    -0.5220    -0.3370 c3         1 CS2       0.139300
      9 O4          -1.0260    -0.6390    -1.7670 oh         1 CS2      -0.730000
     10 C5          -2.1950     0.2170     0.2220 c3         1 CS2       0.138300
     11 O5          -2.1470     0.3120     1.6570 oh         1 CS2      -0.698000
     12 C6          -3.5290    -0.4960    -0.1320 c3         1 CS2       0.121600
     13 O6          -4.6130     0.1060     0.6030 oh         1 CS2      -0.714000
     14 H2           1.7090    -1.0770    -1.1770 h1         1 CS2       0.045700
     15 H3           0.3700     0.6420     0.9690 h1         1 CS2       0.042700
     16 HO2          2.5460    -1.7610     1.2000 ho         1 CS2       0.531000
     17 HO3          1.4730     1.5960    -0.9470 ho         1 CS2       0.572000
     18 H4          -0.8940    -1.5160     0.1300 h1         1 CS2       0.070700
     19 HO4         -0.4880     0.1480    -2.0470 ho         1 CS2       0.515000
     20 H5          -2.2260     1.2230    -0.2200 h1         1 CS2       0.093700
     21 HO5         -3.1050     0.3550     1.9020 ho         1 CS2       0.487000
     22 H61         -3.7090    -0.4140    -1.2130 h1         1 CS2       0.022200
     23 H62         -3.4490    -1.5640     0.1140 h1         1 CS2       0.022200
     24 HO6         -5.4480    -0.3090     0.2790 ho         1 CS2       0.484000
@<TRIPOS>BOND
     1     1     2 1   
     2     1     4 1   
     3     1     6 1   
     4     1    14 1   
     5     2     7 1   
     6     2     8 1   
     7     2    15 1   
     8     3     4 1   
     9     4     5 1   
    10     6    16 1   
    11     7    17 1   
    12     8     9 1   
    13     8    10 1   
    14     8    18 1   
    15     9    19 1   
    16    10    11 1   
    17    10    12 1   
    18    10    20 1   
    19    11    21 1   
    20    12    13 1   
    21    12    22 1   
    22    12    23 1   
    23    13    24 1   
@<TRIPOS>SUBSTRUCTURE
     1 CS2         1 TEMP              0 ****  ****    0 ROOT
