@<TRIPOS>MOLECULE
CS3
   28    28     1     0     0
SMALL
bcc


@<TRIPOS>ATOM
      1 OXT         12.1490     9.6130     1.8520 o          1 CS3      -0.831300
      2 C           11.1540    10.0930     1.2750 c          1 CS3       0.908600
      3 CA          10.2190     9.0820     0.5540 c3         1 CS3       0.007500
      4 N           10.2120     7.7410     1.1230 n8         1 CS3      -0.892800
      5 CB           8.8010     9.6130     0.4330 c3         1 CS3       0.062700
      6 SG           8.0950    10.0230     2.0670 ss         1 CS3      -0.311200
      7 C1H          6.6010     8.9970     2.0930 c3         1 CS3      -0.007300
      8 C1I          6.8860     7.5050     2.2780 c3         1 CS3      -0.176400
      9 C1L          5.5910     6.7270     2.2580 c          1 CS3       0.606700
     10 O1C          5.1420     6.2670     1.2270 o          1 CS3      -0.530100
     11 C1M          4.8430     6.5860     3.5140 cc         1 CS3      -0.164700
     12 C1G          3.5990     6.0240     3.6550 cd         1 CS3      -0.099000
     13 S1K          5.4370     7.1400     5.0370 ss         1 CS3      -0.009800
     14 C1F          4.0310     6.6190     5.8420 cc         1 CS3      -0.130100
     15 C1E          3.1340     6.0430     4.9860 cd         1 CS3      -0.171000
     16 O           10.8460    11.2990     1.1870 o          1 CS3      -0.831300
     17 HA          10.5980     8.9910    -0.4750 h1         1 CS3       0.044700
     18 H           11.1760     7.4710     1.2780 hn         1 CS3       0.332800
     19 H2           9.8180     7.8040     2.0570 hn         1 CS3       0.332800
     20 HB2          8.7810    10.5130    -0.1760 h1         1 CS3       0.053700
     21 HB3          8.1540     8.8750    -0.0440 h1         1 CS3       0.053700
     22 H1H1         6.0320     9.1700     1.1780 h1         1 CS3       0.057200
     23 H1H2         6.0010     9.3800     2.9200 h1         1 CS3       0.057200
     24 H1I1         7.4320     7.3550     3.2120 hc         1 CS3       0.084200
     25 H1I2         7.5220     7.1420     1.4690 hc         1 CS3       0.084200
     26 H1G          3.0410     5.6150     2.8250 ha         1 CS3       0.162000
     27 H1F          3.9320     6.7580     6.9080 h4         1 CS3       0.163000
     28 H1E          2.1800     5.6460     5.3030 ha         1 CS3       0.145000
@<TRIPOS>BOND
     1     1     2 1   
     2     2     3 1   
     3     2    16 1   
     4     3     4 1   
     5     3     5 1   
     6     3    17 1   
     7     4    18 1   
     8     4    19 1   
     9     5     6 1   
    10     5    20 1   
    11     5    21 1   
    12     6     7 1   
    13     7     8 1   
    14     7    22 1   
    15     7    23 1   
    16     8     9 1   
    17     8    24 1   
    18     8    25 1   
    19     9    10 2   
    20     9    11 1   
    21    11    12 2   
    22    11    13 1   
    23    12    15 1   
    24    12    26 1   
    25    13    14 1   
    26    14    15 2   
    27    14    27 1   
    28    15    28 1   
@<TRIPOS>SUBSTRUCTURE
     1 CS3         1 TEMP              0 ****  ****    0 ROOT
