@<TRIPOS>MOLECULE
CS3
   28    28     1     0     0
SMALL
No Charge or Current Charge


@<TRIPOS>ATOM
      1 OXT         11.7080    11.0040     1.6470 o          1 CS3      -0.831300
      2 C           10.9110    10.7210     0.7570 c          1 CS3       0.908600
      3 CA          10.6190     9.1930     0.4370 c3         1 CS3       0.007500
      4 N           11.5200     8.1490     1.0710 n8         1 CS3      -0.892800
      5 CB           9.1290     8.8650     0.7090 c3         1 CS3       0.062700
      6 SG           8.7110     8.9580     2.5140 ss         1 CS3      -0.311200
      7 C1H          6.8850     8.6870     2.4540 c3         1 CS3      -0.007300
      8 C1I          6.5550     7.1990     2.2160 c3         1 CS3      -0.176400
      9 C1L          5.0380     6.9690     2.2340 c          1 CS3       0.606700
     10 O1C          4.3990     7.0540     1.1910 o          1 CS3      -0.530100
     11 C1M          4.3780     6.6750     3.5330 cc         1 CS3      -0.164700
     12 C1G          3.0290     6.4520     3.6770 cd         1 CS3      -0.099000
     13 S1K          5.1990     6.5860     5.0930 ss         1 CS3      -0.009800
     14 C1F          3.6810     6.2400     5.9150 cc         1 CS3      -0.130100
     15 C1E          2.6400     6.2060     5.0220 cd         1 CS3      -0.171000
     16 O           10.4260    11.5740     0.0200 o          1 CS3      -0.831300
     17 HA          10.7680     9.1000    -0.6470 h1         1 CS3       0.044700
     18 H           12.4980     8.4170     0.9130 hn         1 CS3       0.332800
     19 H2          11.4120     8.2140     2.0890 hn         1 CS3       0.332800
     20 HB2          8.4930     9.5730     0.1620 h1         1 CS3       0.053700
     21 HB3          8.9050     7.8560     0.3420 h1         1 CS3       0.053700
     22 H1H1         6.4510     9.3070     1.6580 h1         1 CS3       0.057200
     23 H1H2         6.4560     9.0090     3.4120 h1         1 CS3       0.057200
     24 H1I1         7.0300     6.6280     3.0200 hc         1 CS3       0.084200
     25 H1I2         6.9530     6.8890     1.2440 hc         1 CS3       0.084200
     26 H1G          2.3260     6.4640     2.8470 ha         1 CS3       0.162000
     27 H1F          3.6700     6.0900     6.9880 h4         1 CS3       0.163000
     28 H1E          1.6130     6.0100     5.3180 ha         1 CS3       0.145000
@<TRIPOS>BOND
     1     1     2 1   
     2     2     3 1   
     3     2    16 1   
     4     3     4 1   
     5     3     5 1   
     6     3    17 1   
     7     4    18 1   
     8     4    19 1   
     9     5     6 1   
    10     5    20 1   
    11     5    21 1   
    12     6     7 1   
    13     7     8 1   
    14     7    22 1   
    15     7    23 1   
    16     8     9 1   
    17     8    24 1   
    18     8    25 1   
    19     9    10 2   
    20     9    11 1   
    21    11    12 2   
    22    11    13 1   
    23    12    15 1   
    24    12    26 1   
    25    13    14 1   
    26    14    15 2   
    27    14    27 1   
    28    15    28 1   
@<TRIPOS>SUBSTRUCTURE
     1 CS3         1 TEMP              0 ****  ****    0 ROOT
