@<TRIPOS>MOLECULE
CS4
   31    31     1     0     0
SMALL
bcc


@<TRIPOS>ATOM
      1 OXT         12.4860    15.5600    28.2540 o          1 CS4      -0.831300
      2 C           11.9110    16.1520    27.3180 c          1 CS4       0.947600
      3 CA          12.1670    17.6750    27.2440 c3         1 CS4       0.015500
      4 N           11.8580    18.2740    28.5370 n8         1 CS4      -0.870800
      5 CB          13.6110    17.9700    26.8270 c3         1 CS4       0.006700
      6 SG          14.1800    17.1790    25.2920 ss         1 CS4      -0.348200
      7 C1J         12.8970    17.6620    24.1050 c3         1 CS4       0.010700
      8 C1K         12.7250    19.1700    23.9470 c3         1 CS4      -0.172400
      9 C1N         14.0300    19.8820    23.6940 c          1 CS4       0.595700
     10 O1C         14.4860    20.6710    24.4920 o          1 CS4      -0.519100
     11 C1Q         14.7720    19.5880    22.4310 ca         1 CS4      -0.144600
     12 C1I         16.1210    19.9280    22.3630 ca         1 CS4      -0.063000
     13 C1H         14.1570    19.0270    21.3160 ca         1 CS4      -0.081000
     14 C1G         14.8730    18.8120    20.1510 ca         1 CS4      -0.132000
     15 C1O         16.2160    19.1460    20.0920 ca         1 CS4       0.038400
     16 CL1D        17.0920    18.8740    18.6400 cl         1 CS4      -0.093400
     17 C1P         16.8430    19.7010    21.2060 ca         1 CS4       0.010400
     18 CL1E        18.5120    20.1140    21.1540 cl         1 CS4      -0.090400
     19 O           11.1670    15.6510    26.4530 o          1 CS4      -0.831300
     20 HA          11.4900    18.1140    26.5060 h1         1 CS4       0.038700
     21 H           12.4210    17.8120    29.2410 hn         1 CS4       0.320800
     22 H2          12.1350    19.2490    28.5420 hn         1 CS4       0.320800
     23 HB2         14.2930    17.5910    27.5920 h1         1 CS4       0.051700
     24 HB3         13.7680    19.0490    26.7580 h1         1 CS4       0.051700
     25 H1J1        11.9480    17.2090    24.3930 h1         1 CS4       0.086700
     26 H1J2        13.1990    17.1950    23.1660 h1         1 CS4       0.086700
     27 H1K1        12.2780    19.5950    24.8470 hc         1 CS4       0.066200
     28 H1K2        12.0210    19.3610    23.1310 hc         1 CS4       0.066200
     29 H1I         16.6150    20.3660    23.2200 ha         1 CS4       0.170000
     30 H1H         13.1080    18.7630    21.3280 ha         1 CS4       0.146000
     31 H1G         14.3870    18.3860    19.2840 ha         1 CS4       0.147000
@<TRIPOS>BOND
     1     1     2 1   
     2     2     3 1   
     3     2    19 1   
     4     3     4 1   
     5     3     5 1   
     6     3    20 1   
     7     4    21 1   
     8     4    22 1   
     9     5     6 1   
    10     5    23 1   
    11     5    24 1   
    12     6     7 1   
    13     7     8 1   
    14     7    25 1   
    15     7    26 1   
    16     8     9 1   
    17     8    27 1   
    18     8    28 1   
    19     9    10 2   
    20     9    11 1   
    21    11    12 ar  
    22    11    13 ar  
    23    12    17 ar  
    24    12    29 1   
    25    13    14 ar  
    26    13    30 1   
    27    14    15 ar  
    28    14    31 1   
    29    15    16 1   
    30    15    17 ar  
    31    17    18 1   
@<TRIPOS>SUBSTRUCTURE
     1 CS4         1 TEMP              0 ****  ****    0 ROOT
