@<TRIPOS>MOLECULE
CS4
   31    31     1     0     0
SMALL
No Charge or Current Charge


@<TRIPOS>ATOM
      1 OXT         12.5980    15.3720    28.7940 o          1 CS4      -0.831300
      2 C           11.9820    15.6890    27.7770 c          1 CS4       0.947600
      3 CA          11.7290    17.2310    27.4840 c3         1 CS4       0.015500
      4 N           10.9040    17.9940    28.4980 n8         1 CS4      -0.870800
      5 CB          13.0660    17.9760    27.2390 c3         1 CS4       0.006700
      6 SG          13.9970    17.2850    25.7920 ss         1 CS4      -0.348200
      7 C1J         13.0520    18.0040    24.3700 c3         1 CS4       0.010700
      8 C1K         13.4000    19.4930    24.1290 c3         1 CS4      -0.172400
      9 C1N         14.8640    19.6920    23.6970 c          1 CS4       0.595700
     10 O1C         15.7140    19.9480    24.5420 o          1 CS4      -0.519100
     11 C1Q         15.2550    19.5600    22.2330 ca         1 CS4      -0.144600
     12 C1I         16.5620    19.9290    21.8320 ca         1 CS4      -0.063000
     13 C1H         14.3620    19.0710    21.2470 ca         1 CS4      -0.081000
     14 C1G         14.7680    18.9620    19.9050 ca         1 CS4      -0.132000
     15 C1O         16.0650    19.3360    19.5230 ca         1 CS4       0.038400
     16 Cl1D        16.5390    19.1870    17.8320 cl         1 CS4      -0.093400
     17 C1P         16.9650    19.8200    20.4900 ca         1 CS4       0.010400
     18 Cl1E        18.6020    20.2970    20.0450 cl         1 CS4      -0.090400
     19 O           11.4390    14.8550    27.0580 o          1 CS4      -0.831300
     20 HA          11.1600    17.2730    26.5470 h1         1 CS4       0.038700
     21 H           11.3680    17.9470    29.4120 hn         1 CS4       0.320800
     22 H2          10.8970    18.9900    28.2580 hn         1 CS4       0.320800
     23 HB2         13.7000    17.8900    28.1310 h1         1 CS4       0.051700
     24 HB3         12.8770    19.0420    27.0620 h1         1 CS4       0.051700
     25 H1J1        11.9750    17.9010    24.5600 h1         1 CS4       0.086700
     26 H1J2        13.2850    17.4190    23.4700 h1         1 CS4       0.086700
     27 H1K1        13.2070    20.0650    25.0430 hc         1 CS4       0.066200
     28 H1K2        12.7370    19.8450    23.3320 hc         1 CS4       0.066200
     29 H1I         17.2760    20.3070    22.5620 ha         1 CS4       0.170000
     30 H1H         13.3510    18.7620    21.5010 ha         1 CS4       0.146000
     31 H1G         14.0720    18.5850    19.1590 ha         1 CS4       0.147000
@<TRIPOS>BOND
     1     1     2 1   
     2     2     3 1   
     3     2    19 1   
     4     3     4 1   
     5     3     5 1   
     6     3    20 1   
     7     4    21 1   
     8     4    22 1   
     9     5     6 1   
    10     5    23 1   
    11     5    24 1   
    12     6     7 1   
    13     7     8 1   
    14     7    25 1   
    15     7    26 1   
    16     8     9 1   
    17     8    27 1   
    18     8    28 1   
    19     9    10 2   
    20     9    11 1   
    21    11    12 ar  
    22    11    13 ar  
    23    12    17 ar  
    24    12    29 1   
    25    13    14 ar  
    26    13    30 1   
    27    14    15 ar  
    28    14    31 1   
    29    15    16 1   
    30    15    17 ar  
    31    17    18 1   
@<TRIPOS>SUBSTRUCTURE
     1 CS4         1 TEMP              0 ****  ****    0 ROOT
