@<TRIPOS>MOLECULE
CS5
   83    85     1     0     0
SMALL
abcg2


@<TRIPOS>ATOM
      1 C1          -4.5770     1.0200    -1.5990 ca         1 CS5      -0.065000
      2 C2          -3.5590     0.7250    -2.5010 ca         1 CS5      -0.085300
      3 C3          -2.4240     0.0780    -2.0270 ca         1 CS5      -0.078000
      4 C4          -2.2990    -0.2780    -0.6860 ca         1 CS5      -0.149600
      5 C5          -3.3390     0.0010     0.1930 ca         1 CS5      -0.030000
      6 C6          -4.4680     0.6680    -0.2600 ca         1 CS5      -0.142600
      7 C7          -5.6210     0.8960     0.6730 c          1 CS5       0.612700
      8 N1          -5.7950     2.1380     1.1530 n          1 CS5      -0.404800
      9 O1          -6.3610    -0.0420     0.9470 o          1 CS5      -0.587100
     10 C8          -6.9270     2.4090     2.0270 c3         1 CS5       0.100500
     11 C9          -6.6560     2.0720     3.4880 c3         1 CS5      -0.097400
     12 C10         -7.8460     2.4240     4.3680 c3         1 CS5      -0.089100
     13 C11         -4.8570     3.2310     0.9450 c3         1 CS5       0.100500
     14 C12         -5.3090     4.2370    -0.1040 c3         1 CS5      -0.097400
     15 C13         -4.3340     5.4020    -0.2080 c3         1 CS5      -0.089100
     16 C14         -1.1020    -1.0010    -0.1480 c          1 CS5       0.619700
     17 N2           0.0440    -0.8180    -0.8270 ns         1 CS5      -0.503900
     18 O2          -1.1880    -1.6900     0.8570 o          1 CS5      -0.594100
     19 C15          1.2840    -1.4990    -0.5290 c3         1 CS5       0.084700
     20 C16          2.4240    -0.4700    -0.5430 c3         1 CS5       0.147300
     21 C17          1.5010    -2.6670    -1.5080 c3         1 CS5      -0.054100
     22 O3           2.5010     0.2040    -1.7850 oh         1 CS5      -0.658000
     23 C18          3.7640    -1.0600    -0.1290 c3         1 CS5       0.130800
     24 N3           4.7590    -0.0160     0.0020 n7         1 CS5      -0.857400
     25 C19          6.0470    -0.5210     0.4240 c3         1 CS5       0.205100
     26 C20          7.0720     0.5740     0.5680 ca         1 CS5      -0.057300
     27 C21          0.3620    -3.6420    -1.4570 ca         1 CS5      -0.025300
     28 C22          0.3370    -4.6270    -0.4740 ca         1 CS5      -0.164000
     29 C23         -0.7490    -5.4740    -0.4030 ca         1 CS5       0.206500
     30 C24         -1.8230    -5.3930    -1.2700 ca         1 CS5      -0.191000
     31 C25         -1.7630    -4.4070    -2.2350 ca         1 CS5       0.206500
     32 C26         -0.6980    -3.5350    -2.3500 ca         1 CS5      -0.164000
     33 C27          8.4150     0.3120     0.2960 ca         1 CS5      -0.148000
     34 C28          9.3620     1.3070     0.4680 ca         1 CS5      -0.074000
     35 C29          8.9990     2.5780     0.9020 ca         1 CS5      -0.196000
     36 C30          7.6580     2.8440     1.1680 ca         1 CS5       0.137100
     37 C31          6.7040     1.8390     1.0000 ca         1 CS5      -0.124000
     38 O4           7.1910     4.0360     1.5900 os         1 CS5      -0.341100
     39 C32          8.1060     5.1010     1.7480 c3         1 CS5       0.148900
     40 C33         -3.6820     1.1140    -3.9450 c3         1 CS5      -0.046800
     41 F2          -0.7700    -6.4220     0.5450 f          1 CS5      -0.172500
     42 F1          -2.7840    -4.2980    -3.0970 f          1 CS5      -0.172500
     43 H1          -5.4740     1.5140    -1.9550 ha         1 CS5       0.120000
     44 H3          -1.6440    -0.1680    -2.7390 ha         1 CS5       0.109000
     45 H5          -3.2580    -0.2880     1.2330 ha         1 CS5       0.145000
     46 H81         -7.1680     3.4700     1.9320 h1         1 CS5       0.052700
     47 H82         -7.7990     1.8590     1.6710 h1         1 CS5       0.052700
     48 H91         -6.4260     1.0090     3.5790 hc         1 CS5       0.047200
     49 H92         -5.7700     2.6150     3.8300 hc         1 CS5       0.047200
     50 H101        -8.0710     3.4910     4.3250 hc         1 CS5       0.034533
     51 H102        -8.7430     1.8860     4.0540 hc         1 CS5       0.034533
     52 H103        -7.6570     2.1680     5.4110 hc         1 CS5       0.034533
     53 H111        -4.7230     3.7400     1.9040 h1         1 CS5       0.052700
     54 H112        -3.8800     2.8300     0.6800 h1         1 CS5       0.052700
     55 H121        -5.3970     3.7390    -1.0730 hc         1 CS5       0.047200
     56 H122        -6.3060     4.6120     0.1450 hc         1 CS5       0.047200
     57 H131        -4.2420     5.9250     0.7460 hc         1 CS5       0.034533
     58 H132        -3.3380     5.0610    -0.4960 hc         1 CS5       0.034533
     59 H133        -4.6640     6.1270    -0.9510 hc         1 CS5       0.034533
     60 HN2          0.0670    -0.1710    -1.5990 hn         1 CS5       0.325500
     61 H15          1.2100    -1.8990     0.4830 h1         1 CS5       0.093700
     62 H16          2.1650     0.3010     0.1890 h1         1 CS5       0.102700
     63 H171         1.6080    -2.2840    -2.5260 hc         1 CS5       0.052200
     64 H172         2.4330    -3.1760    -1.2580 hc         1 CS5       0.052200
     65 HO3          2.8450    -0.4010    -2.4520 ho         1 CS5       0.436000
     66 H181         3.6430    -1.5510     0.8410 h1         1 CS5       0.035700
     67 H182         4.0740    -1.8490    -0.8350 h1         1 CS5       0.035700
     68 HN3          4.8670     0.4520    -0.8910 hn         1 CS5       0.422000
     69 H191         5.9180    -1.0100     1.3970 h1         1 CS5       0.038200
     70 H192         6.4470    -1.2980    -0.2460 h1         1 CS5       0.038200
     71 H22          1.1510    -4.7290     0.2330 ha         1 CS5       0.130500
     72 H24         -2.6640    -6.0690    -1.1980 ha         1 CS5       0.152000
     73 H26         -0.7000    -2.7800    -3.1270 ha         1 CS5       0.130500
     74 H27          8.7160    -0.6690    -0.0530 ha         1 CS5       0.111000
     75 H28         10.4030     1.1020     0.2570 ha         1 CS5       0.111000
     76 H29          9.7640     3.3330     1.0190 ha         1 CS5       0.116000
     77 H31          5.6630     2.0570     1.2060 ha         1 CS5       0.144000
     78 H321         8.8670     4.8810     2.5010 h1         1 CS5       0.039700
     79 H322         8.6050     5.3550     0.8090 h1         1 CS5       0.039700
     80 H323         7.5270     5.9600     2.0790 h1         1 CS5       0.039700
     81 H331        -3.4260     2.1660    -4.0850 hc         1 CS5       0.045367
     82 H332        -3.0140     0.5290    -4.5760 hc         1 CS5       0.045367
     83 H333        -4.7000     0.9780    -4.3100 hc         1 CS5       0.045367
@<TRIPOS>BOND
     1     1     2 ar  
     2     1     6 ar  
     3     1    43 1   
     4     2     3 ar  
     5     2    40 1   
     6     3     4 ar  
     7     3    44 1   
     8     4     5 ar  
     9     4    16 1   
    10     5     6 ar  
    11     5    45 1   
    12     6     7 1   
    13     7     8 1   
    14     7     9 2   
    15     8    10 1   
    16     8    13 1   
    17    10    11 1   
    18    10    46 1   
    19    10    47 1   
    20    11    12 1   
    21    11    48 1   
    22    11    49 1   
    23    12    50 1   
    24    12    51 1   
    25    12    52 1   
    26    13    14 1   
    27    13    53 1   
    28    13    54 1   
    29    14    15 1   
    30    14    55 1   
    31    14    56 1   
    32    15    57 1   
    33    15    58 1   
    34    15    59 1   
    35    16    17 1   
    36    16    18 2   
    37    17    19 1   
    38    17    60 1   
    39    19    20 1   
    40    19    21 1   
    41    19    61 1   
    42    20    22 1   
    43    20    23 1   
    44    20    62 1   
    45    21    27 1   
    46    21    63 1   
    47    21    64 1   
    48    22    65 1   
    49    23    24 1   
    50    23    66 1   
    51    23    67 1   
    52    24    25 1   
    53    24    68 1   
    54    25    26 1   
    55    25    69 1   
    56    25    70 1   
    57    26    33 ar  
    58    26    37 ar  
    59    27    28 ar  
    60    27    32 ar  
    61    28    29 ar  
    62    28    71 1   
    63    29    30 ar  
    64    29    41 1   
    65    30    31 ar  
    66    30    72 1   
    67    31    32 ar  
    68    31    42 1   
    69    32    73 1   
    70    33    34 ar  
    71    33    74 1   
    72    34    35 ar  
    73    34    75 1   
    74    35    36 ar  
    75    35    76 1   
    76    36    37 ar  
    77    36    38 1   
    78    37    77 1   
    79    38    39 1   
    80    39    78 1   
    81    39    79 1   
    82    39    80 1   
    83    40    81 1   
    84    40    82 1   
    85    40    83 1   
@<TRIPOS>SUBSTRUCTURE
     1 CS5         1 TEMP              0 ****  ****    0 ROOT
