@<TRIPOS>MOLECULE
CS5
   83    85     1     0     0
SMALL
No Charge or Current Charge


@<TRIPOS>ATOM
      1 C1          -4.2370     1.4900    -1.2430 ca         1 CS5      -0.065000
      2 C2          -3.0550     1.4800    -2.0030 ca         1 CS5      -0.085300
      3 C3          -1.9220     0.7980    -1.5250 ca         1 CS5      -0.078000
      4 C4          -1.9630     0.1060    -0.2900 ca         1 CS5      -0.149600
      5 C5          -3.1620     0.1250     0.4560 ca         1 CS5      -0.030000
      6 C6          -4.2960     0.8310     0.0040 ca         1 CS5      -0.142600
      7 C7          -5.5660     0.8060     0.8270 c          1 CS5       0.612700
      8 N1          -6.4600     1.9020     0.7330 n          1 CS5      -0.404800
      9 O1          -5.8510    -0.1890     1.4840 o          1 CS5      -0.587100
     10 C8          -7.8590     1.7230     1.2100 c3         1 CS5       0.100500
     11 C9          -8.1000     2.1570     2.6740 c3         1 CS5      -0.097400
     12 C10         -9.5380     1.8790     3.1510 c3         1 CS5      -0.089100
     13 C11         -5.9160     3.2920     0.7560 c3         1 CS5       0.100500
     14 C12         -6.7890     4.3440     0.0340 c3         1 CS5      -0.097400
     15 C13         -6.1190     5.7290    -0.0330 c3         1 CS5      -0.089100
     16 C14         -0.7720    -0.6600     0.2460 c          1 CS5       0.619700
     17 N2           0.3730    -0.6340    -0.5230 ns         1 CS5      -0.503900
     18 O2          -0.8170    -1.2740     1.3030 o          1 CS5      -0.594100
     19 C15          1.6030    -1.3930    -0.2480 c3         1 CS5       0.084700
     20 C16          2.8500    -0.4680    -0.4110 c3         1 CS5       0.147300
     21 C17          1.6380    -2.6910    -1.1040 c3         1 CS5      -0.054100
     22 O3           2.9190     0.0630    -1.7560 oh         1 CS5      -0.658000
     23 C18          4.1950    -1.1550    -0.0300 c3         1 CS5       0.130800
     24 N3           5.3140    -0.1870    -0.0500 n7         1 CS5      -0.857400
     25 C19          6.6540    -0.7660     0.1490 c3         1 CS5       0.205100
     26 C20          7.7240     0.3160     0.0640 ca         1 CS5      -0.057300
     27 C21          0.3830    -3.5410    -0.9380 ca         1 CS5      -0.025300
     28 C22          0.2510    -4.4050     0.1660 ca         1 CS5      -0.164000
     29 C23         -0.9170    -5.1660     0.3320 ca         1 CS5       0.206500
     30 C24         -1.9620    -5.0760    -0.5970 ca         1 CS5      -0.191000
     31 C25         -1.8330    -4.2180    -1.6970 ca         1 CS5       0.206500
     32 C26         -0.6690    -3.4550    -1.8720 ca         1 CS5      -0.164000
     33 C27          8.4470     0.5140    -1.1280 ca         1 CS5      -0.148000
     34 C28          9.4340     1.5110    -1.2020 ca         1 CS5      -0.074000
     35 C29          9.7070     2.3180    -0.0840 ca         1 CS5      -0.196000
     36 C30          8.9870     2.1280     1.1150 ca         1 CS5       0.137100
     37 C31          8.0010     1.1290     1.1810 ca         1 CS5      -0.124000
     38 O4           9.2100     2.8900     2.2440 os         1 CS5      -0.341100
     39 C32         10.1960     3.9380     2.2810 c3         1 CS5       0.148900
     40 C33         -3.0010     2.2060    -3.3390 c3         1 CS5      -0.046800
     41 F2          -1.0360    -5.9890     1.3950 f          1 CS5      -0.172500
     42 F1          -2.8380    -4.1230    -2.5950 f          1 CS5      -0.172500
     43 H1          -5.1140     2.0020    -1.6320 ha         1 CS5       0.120000
     44 H3          -1.0210     0.8080    -2.1320 ha         1 CS5       0.109000
     45 H5          -3.2140    -0.4060     1.4060 ha         1 CS5       0.145000
     46 H81         -8.5320     2.2880     0.5530 h1         1 CS5       0.052700
     47 H82         -8.1460     0.6680     1.1010 h1         1 CS5       0.052700
     48 H91         -7.3980     1.6250     3.3280 hc         1 CS5       0.047200
     49 H92         -7.8940     3.2280     2.7850 hc         1 CS5       0.047200
     50 H101       -10.2630     2.4230     2.5340 hc         1 CS5       0.034533
     51 H102        -9.7660     0.8080     3.0920 hc         1 CS5       0.034533
     52 H103        -9.6650     2.2000     4.1920 hc         1 CS5       0.034533
     53 H111        -5.7960     3.5960     1.8040 h1         1 CS5       0.052700
     54 H112        -4.9120     3.3190     0.3190 h1         1 CS5       0.052700
     55 H121        -6.9960     3.9990    -0.9870 hc         1 CS5       0.047200
     56 H122        -7.7530     4.4470     0.5440 hc         1 CS5       0.047200
     57 H131        -5.9220     6.1140     0.9760 hc         1 CS5       0.034533
     58 H132        -5.1670     5.6750    -0.5750 hc         1 CS5       0.034533
     59 H133        -6.7690     6.4440    -0.5510 hc         1 CS5       0.034533
     60 HN2          0.3470    -0.0720    -1.3630 hn         1 CS5       0.325500
     61 H15          1.5830    -1.7040     0.8060 h1         1 CS5       0.093700
     62 H16          2.7130     0.3610     0.2980 h1         1 CS5       0.102700
     63 H171         1.7680    -2.4290    -2.1610 hc         1 CS5       0.052200
     64 H172         2.5140    -3.2880    -0.8280 hc         1 CS5       0.052200
     65 HO3          3.1670    -0.6780    -2.3500 ho         1 CS5       0.436000
     66 H181         4.0990    -1.6000     0.9710 h1         1 CS5       0.035700
     67 H182         4.3930    -1.9730    -0.7360 h1         1 CS5       0.035700
     68 HN3          5.3050     0.2830    -0.9640 hn         1 CS5       0.422000
     69 H191         6.7180    -1.2560     1.1310 h1         1 CS5       0.038200
     70 H192         6.8580    -1.5330    -0.6110 h1         1 CS5       0.038200
     71 H22          1.0480    -4.4820     0.9010 ha         1 CS5       0.130500
     72 H24         -2.8650    -5.6650    -0.4650 ha         1 CS5       0.152000
     73 H26         -0.5900    -2.7890    -2.7280 ha         1 CS5       0.130500
     74 H27          8.2430    -0.1040    -1.9990 ha         1 CS5       0.111000
     75 H28          9.9890     1.6580    -2.1270 ha         1 CS5       0.111000
     76 H29         10.4760     3.0810    -0.1680 ha         1 CS5       0.116000
     77 H31          7.4460     0.9880     2.1040 ha         1 CS5       0.144000
     78 H321        11.1980     3.5370     2.0840 h1         1 CS5       0.039700
     79 H322         9.9720     4.7100     1.5340 h1         1 CS5       0.039700
     80 H323        10.2080     4.4140     3.2690 h1         1 CS5       0.039700
     81 H331        -2.6330     3.2310    -3.2110 hc         1 CS5       0.045367
     82 H332        -2.3350     1.6960    -4.0450 hc         1 CS5       0.045367
     83 H333        -3.9920     2.2620    -3.8060 hc         1 CS5       0.045367
@<TRIPOS>BOND
     1     1     2 ar  
     2     1     6 ar  
     3     1    43 1   
     4     2     3 ar  
     5     2    40 1   
     6     3     4 ar  
     7     3    44 1   
     8     4     5 ar  
     9     4    16 1   
    10     5     6 ar  
    11     5    45 1   
    12     6     7 1   
    13     7     8 1   
    14     7     9 2   
    15     8    10 1   
    16     8    13 1   
    17    10    11 1   
    18    10    46 1   
    19    10    47 1   
    20    11    12 1   
    21    11    48 1   
    22    11    49 1   
    23    12    50 1   
    24    12    51 1   
    25    12    52 1   
    26    13    14 1   
    27    13    53 1   
    28    13    54 1   
    29    14    15 1   
    30    14    55 1   
    31    14    56 1   
    32    15    57 1   
    33    15    58 1   
    34    15    59 1   
    35    16    17 1   
    36    16    18 2   
    37    17    19 1   
    38    17    60 1   
    39    19    20 1   
    40    19    21 1   
    41    19    61 1   
    42    20    22 1   
    43    20    23 1   
    44    20    62 1   
    45    21    27 1   
    46    21    63 1   
    47    21    64 1   
    48    22    65 1   
    49    23    24 1   
    50    23    66 1   
    51    23    67 1   
    52    24    25 1   
    53    24    68 1   
    54    25    26 1   
    55    25    69 1   
    56    25    70 1   
    57    26    33 ar  
    58    26    37 ar  
    59    27    28 ar  
    60    27    32 ar  
    61    28    29 ar  
    62    28    71 1   
    63    29    30 ar  
    64    29    41 1   
    65    30    31 ar  
    66    30    72 1   
    67    31    32 ar  
    68    31    42 1   
    69    32    73 1   
    70    33    34 ar  
    71    33    74 1   
    72    34    35 ar  
    73    34    75 1   
    74    35    36 ar  
    75    35    76 1   
    76    36    37 ar  
    77    36    38 1   
    78    37    77 1   
    79    38    39 1   
    80    39    78 1   
    81    39    79 1   
    82    39    80 1   
    83    40    81 1   
    84    40    82 1   
    85    40    83 1   
@<TRIPOS>SUBSTRUCTURE
     1 CS5         1 TEMP              0 ****  ****    0 ROOT
