@<TRIPOS>MOLECULE
CS7
   87    90     1     0     0
SMALL
abcg2


@<TRIPOS>ATOM
      1 F1           0.7980     4.2250     3.3100 f          1 CS7      -0.170000
      2 F2           3.7040     3.3620    -0.2430 f          1 CS7      -0.170000
      3 N1          -0.3280     0.6890    -1.1640 ns         1 CS7      -0.496900
      4 C1          -1.4560     1.5320    -0.8400 c3         1 CS7       0.085700
      5 C2          -2.6510     1.1150    -1.7100 c3         1 CS7       0.156300
      6 C3          -3.9140     1.9170    -1.4250 c5         1 CS7       0.116500
      7 O1          -2.3270     1.1490    -3.0830 oh         1 CS7      -0.657000
      8 N2          -4.2260     1.9600     0.0020 n7         1 CS7      -0.820400
      9 C4          -5.6710     2.1290     0.0480 c5         1 CS7       0.103800
     10 C5          -6.2180     1.2070    -1.0470 c5         1 CS7       0.127300
     11 C6          -5.1720     1.3660    -2.1500 c5         1 CS7      -0.104400
     12 C8           0.0990     3.3550    -0.1210 ca         1 CS7      -0.026300
     13 C9          -0.1020     3.6920     1.2150 ca         1 CS7      -0.166500
     14 C10          0.9950     3.9030     2.0230 ca         1 CS7       0.205000
     15 C11          2.2950     3.7950     1.5680 ca         1 CS7      -0.197000
     16 C12          2.4580     3.4690     0.2360 ca         1 CS7       0.205000
     17 C13          1.3940     3.2530    -0.6180 ca         1 CS7      -0.166500
     18 C14          4.0250    -1.1110    -0.5430 ca         1 CS7      -0.143600
     19 C15          3.9810    -1.8060    -1.7470 ca         1 CS7      -0.067000
     20 C16          2.8070    -1.8800    -2.4900 ca         1 CS7      -0.088300
     21 C17          1.6730    -1.2350    -2.0030 ca         1 CS7      -0.079000
     22 C18          1.7060    -0.5340    -0.8020 ca         1 CS7      -0.153600
     23 C19          2.8880    -0.4720    -0.0720 ca         1 CS7      -0.030000
     24 C22          2.7530    -2.6600    -3.7700 c3         1 CS7      -0.046800
     25 N3           5.8470    -2.0240     0.7970 n          1 CS7      -0.404800
     26 O3           5.8260     0.1710     0.2570 o          1 CS7      -0.586100
     27 O4          -6.2050    -0.1490    -0.6350 os         1 CS7      -0.459000
     28 C23         -7.2640    -0.5050     0.2220 c3         1 CS7       0.206900
     29 C24         -7.0760    -1.9340     0.6430 ca         1 CS7      -0.090300
     30 C25         -8.0550    -2.8890     0.3940 ca         1 CS7      -0.090500
     31 C26         -7.8760    -4.2090     0.7900 ca         1 CS7      -0.113000
     32 C27         -6.7070    -4.5880     1.4330 ca         1 CS7      -0.103000
     33 C28         -5.7190    -3.6410     1.6820 ca         1 CS7      -0.113000
     34 C29         -5.9030    -2.3240     1.2890 ca         1 CS7      -0.090500
     35 C30          5.1670    -3.3040     0.9240 c3         1 CS7       0.099000
     36 C31          5.7620    -4.4040     0.0530 c3         1 CS7      -0.097400
     37 C32          5.0000    -5.7110     0.2180 c3         1 CS7      -0.088600
     38 C33          7.0900    -1.8750     1.5400 c3         1 CS7       0.099000
     39 C34          6.8770    -1.3810     2.9670 c3         1 CS7      -0.097400
     40 C35          8.1890    -1.3020     3.7340 c3         1 CS7      -0.088600
     41 HN1         -0.0480     0.6740    -2.1330 hn         1 CS7       0.320500
     42 H1          -1.7100     1.3450     0.2040 h1         1 CS7       0.100700
     43 H2          -2.8530     0.0620    -1.4820 h1         1 CS7       0.090700
     44 H3          -3.7530     2.9500    -1.7580 h1         1 CS7       0.059700
     45 HO1         -2.3380     2.0630    -3.3890 ho         1 CS7       0.441000
     46 HN2         -4.0140     1.0550     0.4110 hn         1 CS7       0.414000
     47 H41         -6.0570     1.9230     1.0470 h1         1 CS7       0.063700
     48 H42         -5.9270     3.1650    -0.1920 h1         1 CS7       0.063700
     49 H5          -7.2250     1.4950    -1.3740 h1         1 CS7       0.052700
     50 H61         -5.5210     2.0610    -2.9140 hc         1 CS7       0.068700
     51 H62         -4.9870     0.4110    -2.6450 hc         1 CS7       0.068700
     52 H71         -0.8470     3.2430    -2.0310 hc         1 CS7       0.056700
     53 H72         -1.9350     3.6300    -0.7020 hc         1 CS7       0.056700
     54 H9          -1.1030     3.7770     1.6190 ha         1 CS7       0.134500
     55 H11          3.1420     3.9620     2.2200 ha         1 CS7       0.151000
     56 H13          1.5730     3.0000    -1.6550 ha         1 CS7       0.134500
     57 H15          4.8750    -2.2890    -2.1230 ha         1 CS7       0.119000
     58 H17          0.7510    -1.3060    -2.5700 ha         1 CS7       0.118000
     59 H19          2.9170     0.0800     0.8590 ha         1 CS7       0.144000
     60 H221         2.3510    -3.6600    -3.5980 hc         1 CS7       0.044700
     61 H222         2.1140    -2.1750    -4.5070 hc         1 CS7       0.044700
     62 H223         3.7440    -2.7780    -4.2070 hc         1 CS7       0.044700
     63 H231        -7.2900     0.1390     1.1120 h1         1 CS7       0.028700
     64 H232        -8.2330    -0.3840    -0.2810 h1         1 CS7       0.028700
     65 H25         -8.9660    -2.6000    -0.1170 ha         1 CS7       0.113000
     66 H26         -8.6470    -4.9410     0.5880 ha         1 CS7       0.114000
     67 H27         -6.5620    -5.6160     1.7400 ha         1 CS7       0.113000
     68 H28         -4.8060    -3.9310     2.1840 ha         1 CS7       0.114000
     69 H29         -5.1300    -1.5920     1.4900 ha         1 CS7       0.113000
     70 H301         5.2120    -3.6070     1.9750 h1         1 CS7       0.053450
     71 H302         4.1100    -3.1780     0.6920 h1         1 CS7       0.053450
     72 H311         5.7450    -4.0930    -0.9940 hc         1 CS7       0.046700
     73 H312         6.8130    -4.5560     0.3130 hc         1 CS7       0.046700
     74 H321         5.4320    -6.4990    -0.3980 hc         1 CS7       0.034367
     75 H322         5.0180    -6.0540     1.2540 hc         1 CS7       0.034367
     76 H323         3.9550    -5.5970    -0.0750 hc         1 CS7       0.034367
     77 H331         7.5880    -2.8470     1.5580 h1         1 CS7       0.053450
     78 H332         7.7530    -1.1960     1.0030 h1         1 CS7       0.053450
     79 H341         6.4010    -0.3990     2.9410 hc         1 CS7       0.046700
     80 H342         6.1860    -2.0520     3.4860 hc         1 CS7       0.046700
     81 H351         8.8890    -0.6170     3.2520 hc         1 CS7       0.034367
     82 H352         8.0300    -0.9490     4.7530 hc         1 CS7       0.034367
     83 H353         8.6730    -2.2790     3.7940 hc         1 CS7       0.034367
     84 C7          -1.0780     3.0180    -0.9870 c3         1 CS7      -0.057100
     85 C21          0.5050     0.1640    -0.2460 c          1 CS7       0.617700
     86 C20          5.3120    -0.9380     0.2080 c          1 CS7       0.612700
     87 O2           0.3250     0.2440     0.9590 o          1 CS7      -0.595100
@<TRIPOS>BOND
     1     1    14 1   
     2     2    16 1   
     3     3     4 1   
     4     3    41 1   
     5     3    85 1   
     6     4     5 1   
     7     4    42 1   
     8     4    84 1   
     9     5     6 1   
    10     5     7 1   
    11     5    43 1   
    12     6     8 1   
    13     6    11 1   
    14     6    44 1   
    15     7    45 1   
    16     8     9 1   
    17     8    46 1   
    18     9    10 1   
    19     9    47 1   
    20     9    48 1   
    21    10    11 1   
    22    10    27 1   
    23    10    49 1   
    24    11    50 1   
    25    11    51 1   
    26    12    13 ar  
    27    12    17 ar  
    28    12    84 1   
    29    13    14 ar  
    30    13    54 1   
    31    14    15 ar  
    32    15    16 ar  
    33    15    55 1   
    34    16    17 ar  
    35    17    56 1   
    36    18    19 ar  
    37    18    23 ar  
    38    18    86 1   
    39    19    20 ar  
    40    19    57 1   
    41    20    21 ar  
    42    20    24 1   
    43    21    22 ar  
    44    21    58 1   
    45    22    23 ar  
    46    22    85 1   
    47    23    59 1   
    48    24    60 1   
    49    24    61 1   
    50    24    62 1   
    51    25    35 1   
    52    25    38 1   
    53    25    86 1   
    54    26    86 2   
    55    27    28 1   
    56    28    29 1   
    57    28    63 1   
    58    28    64 1   
    59    29    30 ar  
    60    29    34 ar  
    61    30    31 ar  
    62    30    65 1   
    63    31    32 ar  
    64    31    66 1   
    65    32    33 ar  
    66    32    67 1   
    67    33    34 ar  
    68    33    68 1   
    69    34    69 1   
    70    35    36 1   
    71    35    70 1   
    72    35    71 1   
    73    36    37 1   
    74    36    72 1   
    75    36    73 1   
    76    37    74 1   
    77    37    75 1   
    78    37    76 1   
    79    38    39 1   
    80    38    77 1   
    81    38    78 1   
    82    39    40 1   
    83    39    79 1   
    84    39    80 1   
    85    40    81 1   
    86    40    82 1   
    87    40    83 1   
    88    52    84 1   
    89    53    84 1   
    90    85    87 2   
@<TRIPOS>SUBSTRUCTURE
     1 CS7         1 TEMP              0 ****  ****    0 ROOT
