@<TRIPOS>MOLECULE
CS7
   87    90     1     0     0
SMALL
No Charge or Current Charge


@<TRIPOS>ATOM
      1 F1           0.7860     5.4130     2.2280 f          1 CS7      -0.170000
      2 F2           3.2410     4.4850    -1.7420 f          1 CS7      -0.170000
      3 N1          -0.0030     0.5250    -0.9070 ns         1 CS7      -0.496900
      4 C1          -1.3030     1.1760    -0.6720 c3         1 CS7       0.085700
      5 C2          -2.4620     0.2680    -1.1940 c3         1 CS7       0.156300
      6 C3          -3.9020     0.8130    -0.9170 c5         1 CS7       0.116500
      7 O1          -2.2870     0.0010    -2.6030 oh         1 CS7      -0.657000
      8 N2          -4.1920     1.0240     0.5210 n7         1 CS7      -0.820400
      9 C4          -5.6470     1.3350     0.5430 c5         1 CS7       0.103800
     10 C5          -6.2740     0.5440    -0.6600 c5         1 CS7       0.127300
     11 C6          -5.0470    -0.1560    -1.3070 c5         1 CS7      -0.104400
     12 C8          -0.1330     3.4570    -0.7350 ca         1 CS7      -0.026300
     13 C9          -0.2120     4.0760     0.5270 ca         1 CS7      -0.166500
     14 C10          0.8700     4.8260     1.0150 ca         1 CS7       0.205000
     15 C11          2.0370     4.9690     0.2530 ca         1 CS7      -0.197000
     16 C12          2.1180     4.3550    -1.0040 ca         1 CS7       0.205000
     17 C13          1.0410     3.6050    -1.5010 ca         1 CS7      -0.166500
     18 C14          4.6220    -0.8870     0.0040 ca         1 CS7      -0.143600
     19 C15          4.7720    -1.2880    -1.3420 ca         1 CS7      -0.067000
     20 C16          3.7080    -1.1600    -2.2490 ca         1 CS7      -0.088300
     21 C17          2.4840    -0.6170    -1.8200 ca         1 CS7      -0.079000
     22 C18          2.3160    -0.1830    -0.4830 ca         1 CS7      -0.153600
     23 C19          3.4000    -0.3160     0.4130 ca         1 CS7      -0.030000
     24 C22          3.8790    -1.6080    -3.6930 c3         1 CS7      -0.046800
     25 N3           6.7230    -2.0210     0.8220 n          1 CS7      -0.404800
     26 O3           5.9000    -0.1380     1.8640 o          1 CS7      -0.586100
     27 O4          -7.1560    -0.4950    -0.1680 os         1 CS7      -0.459000
     28 C23         -8.4150    -0.0790     0.3930 c3         1 CS7       0.206900
     29 C24         -9.1860    -1.3180     0.8280 ca         1 CS7      -0.090300
     30 C25        -10.0850    -1.9450    -0.0580 ca         1 CS7      -0.090500
     31 C26        -10.7980    -3.0870     0.3460 ca         1 CS7      -0.113000
     32 C27        -10.6170    -3.6100     1.6370 ca         1 CS7      -0.103000
     33 C28         -9.7200    -2.9910     2.5240 ca         1 CS7      -0.113000
     34 C29         -9.0070    -1.8490     2.1210 ca         1 CS7      -0.090500
     35 C30          6.2560    -3.4010     0.4980 c3         1 CS7       0.099000
     36 C31          7.2750    -4.2660    -0.2780 c3         1 CS7      -0.097400
     37 C32          6.6970    -5.6290    -0.7050 c3         1 CS7      -0.088600
     38 C33          8.0320    -1.9020     1.5210 c3         1 CS7       0.099000
     39 C34          8.0930    -2.6120     2.8930 c3         1 CS7      -0.097400
     40 C35          9.4360    -2.3960     3.6180 c3         1 CS7      -0.088600
     41 HN1          0.1690     0.1430    -1.8270 hn         1 CS7       0.320500
     42 H1          -1.4450     1.2700     0.4130 h1         1 CS7       0.100700
     43 H2          -2.3780    -0.6800    -0.6440 h1         1 CS7       0.090700
     44 H3          -4.0190     1.7610    -1.4620 h1         1 CS7       0.059700
     45 HO1         -2.4880     0.8310    -3.0860 ho         1 CS7       0.441000
     46 HN2         -4.0530     0.1290     1.0080 hn         1 CS7       0.414000
     47 H41         -6.0910     1.0670     1.5120 h1         1 CS7       0.063700
     48 H42         -5.8060     2.4120     0.3970 h1         1 CS7       0.063700
     49 H5          -6.8050     1.2020    -1.3620 h1         1 CS7       0.052700
     50 H61         -5.1570    -0.2580    -2.3920 hc         1 CS7       0.068700
     51 H62         -4.8820    -1.1600    -0.8970 hc         1 CS7       0.068700
     52 H71         -1.2600     2.5720    -2.3480 hc         1 CS7       0.056700
     53 H72         -2.2380     3.1170    -0.9990 hc         1 CS7       0.056700
     54 H9          -1.1060     3.9690     1.1350 ha         1 CS7       0.134500
     55 H11          2.8730     5.5480     0.6340 ha         1 CS7       0.151000
     56 H13          1.1250     3.1300    -2.4750 ha         1 CS7       0.134500
     57 H15          5.7220    -1.6880    -1.6890 ha         1 CS7       0.119000
     58 H17          1.6770    -0.5310    -2.5430 ha         1 CS7       0.118000
     59 H19          3.2910     0.0170     1.4440 ha         1 CS7       0.144000
     60 H221         3.5430    -2.6440    -3.8230 hc         1 CS7       0.044700
     61 H222         3.2980    -0.9790    -4.3790 hc         1 CS7       0.044700
     62 H223         4.9280    -1.5550    -4.0090 hc         1 CS7       0.044700
     63 H231        -8.2640     0.5770     1.2600 h1         1 CS7       0.028700
     64 H232        -9.0020     0.4770    -0.3500 h1         1 CS7       0.028700
     65 H25        -10.2290    -1.5470    -1.0600 ha         1 CS7       0.113000
     66 H26        -11.4910    -3.5670    -0.3430 ha         1 CS7       0.114000
     67 H27        -11.1690    -4.4950     1.9490 ha         1 CS7       0.113000
     68 H28         -9.5780    -3.3960     3.5240 ha         1 CS7       0.114000
     69 H29         -8.3120    -1.3760     2.8130 ha         1 CS7       0.113000
     70 H301         6.0110    -3.9100     1.4400 h1         1 CS7       0.053450
     71 H302         5.3240    -3.3690    -0.0750 h1         1 CS7       0.053450
     72 H311         7.6000    -3.7220    -1.1730 hc         1 CS7       0.046700
     73 H312         8.1660    -4.4420     0.3360 hc         1 CS7       0.046700
     74 H321         7.4500    -6.2100    -1.2520 hc         1 CS7       0.034367
     75 H322         6.3860    -6.2100     0.1720 hc         1 CS7       0.034367
     76 H323         5.8270    -5.4940    -1.3590 hc         1 CS7       0.034367
     77 H331         8.8180    -2.3080     0.8720 h1         1 CS7       0.053450
     78 H332         8.2720    -0.8400     1.6600 h1         1 CS7       0.053450
     79 H341         7.2810    -2.2400     3.5290 hc         1 CS7       0.046700
     80 H342         7.9340    -3.6890     2.7650 hc         1 CS7       0.046700
     81 H351         9.6110    -1.3280     3.8000 hc         1 CS7       0.034367
     82 H352         9.4360    -2.9130     4.5850 hc         1 CS7       0.034367
     83 H353        10.2670    -2.7860     3.0190 hc         1 CS7       0.034367
     84 C7          -1.2960     2.6180    -1.2530 c3         1 CS7      -0.057100
     85 C21          1.0210     0.4290     0.0110 c          1 CS7       0.617700
     86 C20          5.7640    -0.9900     0.9930 c          1 CS7       0.612700
     87 O2           0.8860     0.8200     1.1630 o          1 CS7      -0.595100
@<TRIPOS>BOND
     1     1    14 1   
     2     2    16 1   
     3     3     4 1   
     4     3    41 1   
     5     3    85 1   
     6     4     5 1   
     7     4    42 1   
     8     4    84 1   
     9     5     6 1   
    10     5     7 1   
    11     5    43 1   
    12     6     8 1   
    13     6    11 1   
    14     6    44 1   
    15     7    45 1   
    16     8     9 1   
    17     8    46 1   
    18     9    10 1   
    19     9    47 1   
    20     9    48 1   
    21    10    11 1   
    22    10    27 1   
    23    10    49 1   
    24    11    50 1   
    25    11    51 1   
    26    12    13 ar  
    27    12    17 ar  
    28    12    84 1   
    29    13    14 ar  
    30    13    54 1   
    31    14    15 ar  
    32    15    16 ar  
    33    15    55 1   
    34    16    17 ar  
    35    17    56 1   
    36    18    19 ar  
    37    18    23 ar  
    38    18    86 1   
    39    19    20 ar  
    40    19    57 1   
    41    20    21 ar  
    42    20    24 1   
    43    21    22 ar  
    44    21    58 1   
    45    22    23 ar  
    46    22    85 1   
    47    23    59 1   
    48    24    60 1   
    49    24    61 1   
    50    24    62 1   
    51    25    35 1   
    52    25    38 1   
    53    25    86 1   
    54    26    86 2   
    55    27    28 1   
    56    28    29 1   
    57    28    63 1   
    58    28    64 1   
    59    29    30 ar  
    60    29    34 ar  
    61    30    31 ar  
    62    30    65 1   
    63    31    32 ar  
    64    31    66 1   
    65    32    33 ar  
    66    32    67 1   
    67    33    34 ar  
    68    33    68 1   
    69    34    69 1   
    70    35    36 1   
    71    35    70 1   
    72    35    71 1   
    73    36    37 1   
    74    36    72 1   
    75    36    73 1   
    76    37    74 1   
    77    37    75 1   
    78    37    76 1   
    79    38    39 1   
    80    38    77 1   
    81    38    78 1   
    82    39    40 1   
    83    39    79 1   
    84    39    80 1   
    85    40    81 1   
    86    40    82 1   
    87    40    83 1   
    88    52    84 1   
    89    53    84 1   
    90    85    87 2   
@<TRIPOS>SUBSTRUCTURE
     1 CS7         1 TEMP              0 ****  ****    0 ROOT
