@<TRIPOS>MOLECULE
CS9
   84    87     1     0     0
SMALL
No Charge or Current Charge


@<TRIPOS>ATOM
      1 C1          -4.9620     1.1440    -2.4710 ca         1 CS9      -0.067000
      2 C2          -3.7730     1.1240    -3.2190 ca         1 CS9      -0.086300
      3 C3          -2.5550     0.8080    -2.5890 ca         1 CS9      -0.081000
      4 C4          -2.5170     0.4940    -1.2090 ca         1 CS9      -0.151600
      5 C5          -3.7240     0.5170    -0.4760 ca         1 CS9      -0.036000
      6 C6          -4.9460     0.8660    -1.0910 ca         1 CS9      -0.140600
      7 C7          -6.2450     0.8610    -0.3160 c          1 CS9       0.613700
      8 N1          -6.2440     1.2940     1.0350 n          1 CS9      -0.403800
      9 O1          -7.2580     0.3990    -0.8290 o          1 CS9      -0.588100
     10 C8          -7.3810     0.9540     1.9260 c3         1 CS9       0.099000
     11 C9          -7.1020    -0.3100     2.7630 c3         1 CS9      -0.097400
     12 C10         -8.2610    -0.6740     3.7100 c3         1 CS9      -0.088600
     13 C11         -5.3640     2.4050     1.4840 c3         1 CS9       0.099000
     14 C12         -6.0280     3.7960     1.3810 c3         1 CS9      -0.097400
     15 C13         -5.0870     4.9410     1.8040 c3         1 CS9      -0.088600
     16 C30         -3.7990     1.4460    -4.7060 c3         1 CS9      -0.046800
     17 C14         -1.2310     0.1200    -0.5000 c          1 CS9       0.616700
     18 N2          -0.0900     0.0860    -1.2730 ns         1 CS9      -0.495900
     19 O2          -1.2020    -0.1400     0.6950 o          1 CS9      -0.594100
     20 C15          1.2390    -0.3510    -0.8130 c3         1 CS9       0.086700
     21 C16          2.3350     0.6420    -1.3130 c3         1 CS9       0.166300
     22 C17          1.4820    -1.8360    -1.2060 c3         1 CS9      -0.055100
     23 O3           2.3000     0.7320    -2.7560 oh         1 CS9      -0.660000
     24 C19          0.3730    -2.7650    -0.7250 ca         1 CS9      -0.026300
     25 C21          0.3640    -3.2330     0.6030 ca         1 CS9      -0.164500
     26 C22         -0.6740    -4.0640     1.0520 ca         1 CS9       0.205000
     27 C23         -1.7110    -4.4380     0.1870 ca         1 CS9      -0.196000
     28 C24         -1.7040    -3.9750    -1.1350 ca         1 CS9       0.205000
     29 C25         -0.6690    -3.1450    -1.5940 ca         1 CS9      -0.164500
     30 F2          -0.6750    -4.5060     2.3290 f          1 CS9      -0.170000
     31 F1          -2.7020    -4.3280    -1.9740 f          1 CS9      -0.170000
     32 C26          6.0240     0.9580    -0.3580 c5         1 CS9       0.138300
     33 C18          5.2880     0.7690     1.0050 c5         1 CS9       0.117800
     34 N3           3.9110     0.2880     0.6670 n7         1 CS9      -0.848400
     35 C20          4.8370     1.4020    -1.2370 c5         1 CS9      -0.096400
     36 C27          3.7890     0.3370    -0.8190 c5         1 CS9       0.130500
     37 O4           6.9490     2.0800    -0.2860 os         1 CS9      -0.338100
     38 C31          7.9930     1.8660     0.6050 ca         1 CS9       0.142100
     39 C32          8.5630     0.5970     0.8740 ca         1 CS9      -0.171000
     40 C33          9.6310     0.4810     1.7830 ca         1 CS9      -0.073500
     41 C34         10.1440     1.6230     2.4190 ca         1 CS9      -0.145000
     42 C35          9.5970     2.8860     2.1410 ca         1 CS9      -0.073500
     43 C36          8.5310     3.0030     1.2330 ca         1 CS9      -0.171000
     44 H1          -5.9020     1.3890    -2.9610 ha         1 CS9       0.120000
     45 H3          -1.6510     0.8030    -3.1910 ha         1 CS9       0.118000
     46 H5          -3.7170     0.2470     0.5790 ha         1 CS9       0.141000
     47 H81         -7.5720     1.7860     2.6150 h1         1 CS9       0.053950
     48 H82         -8.2980     0.8100     1.3400 h1         1 CS9       0.053950
     49 H91         -6.9100    -1.1530     2.0880 hc         1 CS9       0.046450
     50 H92         -6.1900    -0.1580     3.3530 hc         1 CS9       0.046450
     51 H101        -8.4530     0.1400     4.4190 hc         1 CS9       0.034367
     52 H102        -9.1800    -0.8640     3.1420 hc         1 CS9       0.034367
     53 H103        -8.0180    -1.5780     4.2820 hc         1 CS9       0.034367
     54 H111        -5.0800     2.2220     2.5290 h1         1 CS9       0.053950
     55 H112        -4.4370     2.4360     0.9030 h1         1 CS9       0.053950
     56 H121        -6.3490     3.9640     0.3450 hc         1 CS9       0.046450
     57 H122        -6.9290     3.8320     2.0040 hc         1 CS9       0.046450
     58 H131        -5.5960     5.9080     1.7120 hc         1 CS9       0.034367
     59 H132        -4.7710     4.8170     2.8470 hc         1 CS9       0.034367
     60 H133        -4.1920     4.9620     1.1700 hc         1 CS9       0.034367
     61 H301        -3.5610     2.5020    -4.8800 hc         1 CS9       0.045033
     62 H302        -3.0680     0.8430    -5.2580 hc         1 CS9       0.045033
     63 H303        -4.7840     1.2480    -5.1440 hc         1 CS9       0.045033
     64 HN2         -0.1860     0.3500    -2.2440 hn         1 CS9       0.321500
     65 H15          1.2510    -0.3010     0.2850 h1         1 CS9       0.110700
     66 H16          2.0720     1.6220    -0.8910 h1         1 CS9       0.094700
     67 H171         1.5810    -1.9150    -2.2950 hc         1 CS9       0.049200
     68 H172         2.4380    -2.1730    -0.7890 hc         1 CS9       0.049200
     69 HO3          2.6410    -0.1160    -3.1110 ho         1 CS9       0.439000
     70 H21          1.1550    -2.9470     1.2910 ha         1 CS9       0.133000
     71 H23         -2.5130    -5.0800     0.5390 ha         1 CS9       0.151000
     72 H25         -0.6860    -2.7900    -2.6210 ha         1 CS9       0.133000
     73 H26          6.4940     0.0480    -0.7520 h1         1 CS9       0.044700
     74 H182         5.2270     1.7250     1.5440 h1         1 CS9       0.070200
     75 HN3          3.7860    -0.6800     0.9930 hn         1 CS9       0.412000
     76 H201         4.5040     2.4190    -0.9990 hc         1 CS9       0.072700
     77 H202         5.0730     1.3640    -2.3060 hc         1 CS9       0.072700
     78 H27          4.0950    -0.6350    -1.2330 h1         1 CS9       0.040700
     79 H32          8.2120    -0.3060     0.3860 ha         1 CS9       0.120000
     80 H33         10.0650    -0.4960     1.9890 ha         1 CS9       0.113000
     81 H34         10.9700     1.5300     3.1200 ha         1 CS9       0.116000
     82 H35          9.9990     3.7720     2.6270 ha         1 CS9       0.113000
     83 H36          8.1110     3.9830     1.0200 ha         1 CS9       0.120000
     84 H181         5.8170     0.0590     1.6560 h1         1 CS9       0.070200
@<TRIPOS>BOND
     1     1     2 ar  
     2     1     6 ar  
     3     1    44 1   
     4     2     3 ar  
     5     2    16 1   
     6     3     4 ar  
     7     3    45 1   
     8     4     5 ar  
     9     4    17 1   
    10     5     6 ar  
    11     5    46 1   
    12     6     7 1   
    13     7     8 1   
    14     7     9 2   
    15     8    10 1   
    16     8    13 1   
    17    10    11 1   
    18    10    47 1   
    19    10    48 1   
    20    11    12 1   
    21    11    49 1   
    22    11    50 1   
    23    12    51 1   
    24    12    52 1   
    25    12    53 1   
    26    13    14 1   
    27    13    54 1   
    28    13    55 1   
    29    14    15 1   
    30    14    56 1   
    31    14    57 1   
    32    15    58 1   
    33    15    59 1   
    34    15    60 1   
    35    16    61 1   
    36    16    62 1   
    37    16    63 1   
    38    17    18 1   
    39    17    19 2   
    40    18    20 1   
    41    18    64 1   
    42    20    21 1   
    43    20    22 1   
    44    20    65 1   
    45    21    23 1   
    46    21    36 1   
    47    21    66 1   
    48    22    24 1   
    49    22    67 1   
    50    22    68 1   
    51    23    69 1   
    52    24    25 ar  
    53    24    29 ar  
    54    25    26 ar  
    55    25    70 1   
    56    26    27 ar  
    57    26    30 1   
    58    27    28 ar  
    59    27    71 1   
    60    28    29 ar  
    61    28    31 1   
    62    29    72 1   
    63    32    33 1   
    64    32    35 1   
    65    32    37 1   
    66    32    73 1   
    67    33    34 1   
    68    33    74 1   
    69    33    84 1   
    70    34    36 1   
    71    34    75 1   
    72    35    36 1   
    73    35    76 1   
    74    35    77 1   
    75    36    78 1   
    76    37    38 1   
    77    38    39 ar  
    78    38    43 ar  
    79    39    40 ar  
    80    39    79 1   
    81    40    41 ar  
    82    40    80 1   
    83    41    42 ar  
    84    41    81 1   
    85    42    43 ar  
    86    42    82 1   
    87    43    83 1   
@<TRIPOS>SUBSTRUCTURE
     1 CS9         1 TEMP              0 ****  ****    0 ROOT
