@<TRIPOS>MOLECULE
CS9
   84    87     1     0     0
SMALL
bcc


@<TRIPOS>ATOM
      1 C1          -4.4270     1.8120    -1.6840 ca         1 CS9      -0.085000
      2 C2          -3.2190     2.2510    -2.2160 ca         1 CS9      -0.086300
      3 C3          -2.0400     1.6930    -1.7310 ca         1 CS9      -0.099000
      4 C4          -2.0620     0.7280    -0.7290 ca         1 CS9      -0.151600
      5 C5          -3.2770     0.3060    -0.2030 ca         1 CS9      -0.054000
      6 C6          -4.4600     0.8490    -0.6830 ca         1 CS9      -0.140600
      7 C7          -5.7770     0.3270    -0.1890 c          1 CS9       0.680700
      8 N1          -6.3940     1.0310     0.7760 n          1 CS9      -0.470800
      9 O1          -6.2410    -0.6940    -0.6800 o          1 CS9      -0.588100
     10 C8          -7.6850     0.5780     1.2710 c3         1 CS9       0.099000
     11 C9          -7.5700    -0.4350     2.4030 c3         1 CS9      -0.097400
     12 C10         -8.9380    -0.8580     2.9170 c3         1 CS9      -0.088600
     13 C11         -5.8160     2.1960     1.4250 c3         1 CS9       0.099000
     14 C12         -6.3620     3.5200     0.9060 c3         1 CS9      -0.097400
     15 C13         -5.7540     4.6990     1.6500 c3         1 CS9      -0.088600
     16 C30         -3.1880     3.3240    -3.2650 c3         1 CS9      -0.046800
     17 C14         -0.8080     0.1400    -0.1630 c          1 CS9       0.683700
     18 N2           0.1940    -0.0320    -1.0440 ns         1 CS9      -0.562900
     19 O2          -0.7330    -0.1510     1.0210 o          1 CS9      -0.594100
     20 C15          1.4450    -0.6830    -0.7260 c3         1 CS9       0.086700
     21 C16          2.5890     0.1050    -1.3760 c3         1 CS9       0.143100
     22 C17          1.4030    -2.1660    -1.1400 c3         1 CS9      -0.055100
     23 O3           2.4260     0.2120    -2.7740 oh         1 CS9      -0.597800
     24 C19          0.2290    -2.8650    -0.5220 ca         1 CS9      -0.026300
     25 C21          0.3200    -3.3690     0.7720 ca         1 CS9      -0.182500
     26 C22         -0.8020    -3.9200     1.3550 ca         1 CS9       0.169900
     27 C23         -2.0220    -4.0000     0.7110 ca         1 CS9      -0.214000
     28 C24         -2.0740    -3.5020    -0.5750 ca         1 CS9       0.169900
     29 C25         -0.9800    -2.9430    -1.2070 ca         1 CS9      -0.182500
     30 F2          -0.7140    -4.4000     2.6050 f          1 CS9      -0.134900
     31 F1          -3.2380    -3.5670    -1.2360 f          1 CS9      -0.134900
     32 C26          6.1080     0.4940    -0.4260 c5         1 CS9       0.115100
     33 C18          5.1940     0.4510     0.8010 c5         1 CS9       0.117800
     34 N3           4.1490    -0.4940     0.4420 n7         1 CS9      -0.793200
     35 C20          5.0980     0.4590    -1.5650 c5         1 CS9      -0.096400
     36 C27          3.9710    -0.4370    -1.0170 c5         1 CS9       0.130500
     37 O4           6.9030     1.6580    -0.5380 os         1 CS9      -0.314900
     38 C31          7.9900     1.8140     0.2470 ca         1 CS9       0.142100
     39 C32          8.4610     0.8620     1.1500 ca         1 CS9      -0.189000
     40 C33          9.6030     1.1310     1.8980 ca         1 CS9      -0.091500
     41 C34         10.2800     2.3330     1.7650 ca         1 CS9      -0.163000
     42 C35          9.8030     3.2790     0.8640 ca         1 CS9      -0.091500
     43 C36          8.6710     3.0260     0.1100 ca         1 CS9      -0.189000
     44 H1          -5.3540     2.2290    -2.0600 ha         1 CS9       0.138000
     45 H3          -1.0950     2.0450    -2.1310 ha         1 CS9       0.136000
     46 H5          -3.2970    -0.4440     0.5780 ha         1 CS9       0.159000
     47 H81         -8.2360     1.4560     1.6170 h1         1 CS9       0.053950
     48 H82         -8.2600     0.1570     0.4460 h1         1 CS9       0.053950
     49 H91         -7.0190    -1.3100     2.0490 hc         1 CS9       0.046450
     50 H92         -6.9840    -0.0040     3.2200 hc         1 CS9       0.046450
     51 H101        -9.4960    -0.0060     3.3090 hc         1 CS9       0.034367
     52 H102        -9.5380    -1.3080     2.1240 hc         1 CS9       0.034367
     53 H103        -8.8490    -1.5900     3.7190 hc         1 CS9       0.034367
     54 H111        -6.0120     2.1120     2.4980 h1         1 CS9       0.053950
     55 H112        -4.7320     2.1770     1.3160 h1         1 CS9       0.053950
     56 H121        -6.1520     3.6050    -0.1630 hc         1 CS9       0.046450
     57 H122        -7.4500     3.5380     1.0110 hc         1 CS9       0.046450
     58 H131        -6.1520     5.6450     1.2820 hc         1 CS9       0.034367
     59 H132        -5.9640     4.6450     2.7200 hc         1 CS9       0.034367
     60 H133        -4.6690     4.7280     1.5280 hc         1 CS9       0.034367
     61 H301        -3.1730     4.3140    -2.8060 hc         1 CS9       0.045033
     62 H302        -2.3030     3.2430    -3.8940 hc         1 CS9       0.045033
     63 H303        -4.0680     3.2770    -3.9060 hc         1 CS9       0.045033
     64 HN2          0.0050     0.1220    -2.0230 hn         1 CS9       0.321500
     65 H15          1.5860    -0.6230     0.3530 h1         1 CS9       0.110700
     66 H16          2.5150     1.1280    -0.9900 h1         1 CS9       0.094700
     67 H171         1.3440    -2.2500    -2.2290 hc         1 CS9       0.049200
     68 H172         2.3300    -2.6520    -0.8300 hc         1 CS9       0.049200
     69 HO3          2.7070    -0.6100    -3.1910 ho         1 CS9       0.400000
     70 H21          1.2500    -3.3210     1.3250 ha         1 CS9       0.151000
     71 H23         -2.8900    -4.4380     1.1880 ha         1 CS9       0.169000
     72 H25         -1.0720    -2.5710    -2.2190 ha         1 CS9       0.151000
     73 H26          6.7370    -0.4040    -0.4570 h1         1 CS9       0.044700
     74 H182         4.7780     1.4510     0.9710 h1         1 CS9       0.070200
     75 HN3          4.4310    -1.4250     0.7130 hn         1 CS9       0.356800
     76 H201         4.7350     1.4730    -1.7520 hc         1 CS9       0.072700
     77 H202         5.5210     0.0820    -2.4950 hc         1 CS9       0.072700
     78 H27          4.0770    -1.4460    -1.4290 h1         1 CS9       0.040700
     79 H32          7.9620    -0.0870     1.2870 ha         1 CS9       0.138000
     80 H33          9.9590     0.3830     2.5940 ha         1 CS9       0.131000
     81 H34         11.1660     2.5310     2.3530 ha         1 CS9       0.134000
     82 H35         10.3160     4.2250     0.7470 ha         1 CS9       0.131000
     83 H36          8.3020     3.7640    -0.5920 ha         1 CS9       0.138000
     84 H181         5.6850     0.1400     1.7220 h1         1 CS9       0.070200
@<TRIPOS>BOND
     1     1     2 ar  
     2     1     6 ar  
     3     1    44 1   
     4     2     3 ar  
     5     2    16 1   
     6     3     4 ar  
     7     3    45 1   
     8     4     5 ar  
     9     4    17 1   
    10     5     6 ar  
    11     5    46 1   
    12     6     7 1   
    13     7     8 1   
    14     7     9 2   
    15     8    10 1   
    16     8    13 1   
    17    10    11 1   
    18    10    47 1   
    19    10    48 1   
    20    11    12 1   
    21    11    49 1   
    22    11    50 1   
    23    12    51 1   
    24    12    52 1   
    25    12    53 1   
    26    13    14 1   
    27    13    54 1   
    28    13    55 1   
    29    14    15 1   
    30    14    56 1   
    31    14    57 1   
    32    15    58 1   
    33    15    59 1   
    34    15    60 1   
    35    16    61 1   
    36    16    62 1   
    37    16    63 1   
    38    17    18 1   
    39    17    19 2   
    40    18    20 1   
    41    18    64 1   
    42    20    21 1   
    43    20    22 1   
    44    20    65 1   
    45    21    23 1   
    46    21    36 1   
    47    21    66 1   
    48    22    24 1   
    49    22    67 1   
    50    22    68 1   
    51    23    69 1   
    52    24    25 ar  
    53    24    29 ar  
    54    25    26 ar  
    55    25    70 1   
    56    26    27 ar  
    57    26    30 1   
    58    27    28 ar  
    59    27    71 1   
    60    28    29 ar  
    61    28    31 1   
    62    29    72 1   
    63    32    33 1   
    64    32    35 1   
    65    32    37 1   
    66    32    73 1   
    67    33    34 1   
    68    33    74 1   
    69    33    84 1   
    70    34    36 1   
    71    34    75 1   
    72    35    36 1   
    73    35    76 1   
    74    35    77 1   
    75    36    78 1   
    76    37    38 1   
    77    38    39 ar  
    78    38    43 ar  
    79    39    40 ar  
    80    39    79 1   
    81    40    41 ar  
    82    40    80 1   
    83    41    42 ar  
    84    41    81 1   
    85    42    43 ar  
    86    42    82 1   
    87    43    83 1   
@<TRIPOS>SUBSTRUCTURE
     1 CS9         1 TEMP              0 ****  ****    0 ROOT
