@<TRIPOS>MOLECULE
CSA
   21    20     1     0     0
SMALL
No Charge or Current Charge


@<TRIPOS>ATOM
      1 N           47.5380    43.5580   123.6990 n8         1 CSA      -0.884800
      2 CA          46.5060    44.6570   123.8280 c3         1 CSA       0.020500
      3 CB          46.3540    45.4180   122.4820 c3         1 CSA       0.059700
      4 C           45.0850    44.2490   124.4220 c          1 CSA       0.934600
      5 SG          47.9620    46.1430   121.8890 ss         1 CSA      -0.364200
      6 C3          48.1430    47.5820   123.0620 c3         1 CSA      -0.105300
      7 C2          49.3820    48.4670   122.8100 c          1 CSA       0.581100
      8 O4          50.1740    48.2680   121.8960 o          1 CSA      -0.510100
      9 C1          49.5720    49.6300   123.7840 c3         1 CSA      -0.201100
     10 O           44.1320    44.0880   123.6630 o          1 CSA      -0.829800
     11 OXT         44.9790    44.1190   125.6390 o          1 CSA      -0.829800
     12 H           47.7930    43.2230   124.6340 hn         1 CSA       0.332800
     13 H2          48.4000    43.9640   123.3220 hn         1 CSA       0.332800
     14 HA          46.9340    45.3710   124.5440 h1         1 CSA      -0.009300
     15 HB2         45.9750    44.7290   121.7170 h1         1 CSA       0.077700
     16 HB3         45.6210    46.2280   122.5970 h1         1 CSA       0.077700
     17 H31         47.2570    48.2240   122.9890 h1         1 CSA       0.076700
     18 H32         48.2080    47.2090   124.0910 h1         1 CSA       0.076700
     19 H11         50.4620    50.2290   123.5620 hc         1 CSA       0.054700
     20 H12         48.6620    50.2400   123.7900 hc         1 CSA       0.054700
     21 H13         49.5930    49.2370   124.8070 hc         1 CSA       0.054700
@<TRIPOS>BOND
     1     1     2 1   
     2     1    12 1   
     3     1    13 1   
     4     2     3 1   
     5     2     4 1   
     6     2    14 1   
     7     3     5 1   
     8     3    15 1   
     9     3    16 1   
    10     4    10 1   
    11     4    11 1   
    12     5     6 1   
    13     6     7 1   
    14     6    17 1   
    15     6    18 1   
    16     7     8 2   
    17     7     9 1   
    18     9    19 1   
    19     9    20 1   
    20     9    21 1   
@<TRIPOS>SUBSTRUCTURE
     1 CSA         1 TEMP              0 ****  ****    0 ROOT
