@<TRIPOS>MOLECULE
CSA
   21    20     1     0     0
SMALL
bcc


@<TRIPOS>ATOM
      1 N           47.4710    43.5330   123.6670 n8         1 CSA      -0.884800
      2 CA          46.5920    44.6680   123.8800 c3         1 CSA       0.020500
      3 CB          46.4630    45.4710   122.5930 c3         1 CSA       0.059700
      4 C           45.1950    44.2180   124.3910 c          1 CSA       0.934600
      5 SG          48.0310    46.1860   122.0040 ss         1 CSA      -0.364200
      6 C3          48.1450    47.5860   123.1410 c3         1 CSA      -0.105300
      7 C2          49.3600    48.4250   122.8450 c          1 CSA       0.581100
      8 O4          50.1910    48.0770   122.0390 o          1 CSA      -0.510100
      9 C1          49.4470    49.7180   123.6030 c3         1 CSA      -0.201100
     10 O           44.2920    45.0740   124.3340 o          1 CSA      -0.829800
     11 OXT         45.1070    43.0650   124.8540 o          1 CSA      -0.829800
     12 H           47.3730    42.9000   124.4490 hn         1 CSA       0.332800
     13 H2          48.4330    43.8460   123.6540 hn         1 CSA       0.332800
     14 HA          46.9710    45.3510   124.6620 h1         1 CSA      -0.009300
     15 HB2         46.1210    44.8210   121.7840 h1         1 CSA       0.077700
     16 HB3         45.7360    46.2740   122.7050 h1         1 CSA       0.077700
     17 H31         47.2480    48.2100   123.0770 h1         1 CSA       0.076700
     18 H32         48.2080    47.2490   124.1810 h1         1 CSA       0.076700
     19 H11         50.4490    50.1400   123.5540 hc         1 CSA       0.054700
     20 H12         48.7470    50.4320   123.1630 hc         1 CSA       0.054700
     21 H13         49.1510    49.5900   124.6450 hc         1 CSA       0.054700
@<TRIPOS>BOND
     1     1     2 1   
     2     1    12 1   
     3     1    13 1   
     4     2     3 1   
     5     2     4 1   
     6     2    14 1   
     7     3     5 1   
     8     3    15 1   
     9     3    16 1   
    10     4    10 1   
    11     4    11 1   
    12     5     6 1   
    13     6     7 1   
    14     6    17 1   
    15     6    18 1   
    16     7     8 2   
    17     7     9 1   
    18     9    19 1   
    19     9    20 1   
    20     9    21 1   
@<TRIPOS>SUBSTRUCTURE
     1 CSA         1 TEMP              0 ****  ****    0 ROOT
