@<TRIPOS>MOLECULE
CSB
   13    11     1     0     0
SMALL
abcg2


@<TRIPOS>ATOM
      1 N           36.4220    29.1870    32.4250 n2         1 CSB      -0.177000
      2 CA          37.4160    29.5890    33.4160 c3         1 CSB      -0.102000
      3 CB          37.8020    31.0520    33.1850 c3         1 CSB      -0.263000
      4 SG          36.3800    32.2090    33.1870 s          1 CSB       0.092000
      5 PB          34.4550    30.4880    32.9900 DU         1 CSB       0.699000
      6 C           36.7900    29.4380    34.7830 c2         1 CSB       0.314000
      7 O           35.5820    29.5150    34.9550 o          1 CSB      -0.377000
      8 OXT         37.6480    29.2680    35.7420 oh         1 CSB      -0.215000
      9 H           36.2620    28.1830    32.4460 hn         1 CSB       0.194000
     10 HA          38.3180    28.9740    33.3550 h1         1 CSB       0.209000
     11 HB2         38.5090    31.3690    33.9510 h1         1 CSB       0.165500
     12 HB3         38.3150    31.1130    32.2250 h1         1 CSB       0.165500
     13 HXT         37.2160    29.2420    36.6120 ho         1 CSB       0.294000
@<TRIPOS>BOND
     1     1     2 1   
     2     1     9 1   
     3     2     3 1   
     4     2     6 1   
     5     2    10 1   
     6     3     4 1   
     7     3    11 1   
     8     3    12 1   
     9     6     7 1   
    10     6     8 1   
    11     8    13 1   
@<TRIPOS>SUBSTRUCTURE
     1 CSB         1 TEMP              0 ****  ****    0 ROOT
