@<TRIPOS>MOLECULE
CSC
   48    49     1     0     0
SMALL
bcc


@<TRIPOS>ATOM
      1 S1          -8.6340    -1.6500    -2.8110 ss         1 CSC      -0.413200
      2 C2          -9.4060    -0.0440    -3.1810 c6         1 CSC       0.098900
      3 C3          -8.4990     1.1560    -3.0410 c2         1 CSC      -0.250400
      4 C5          -9.2380     2.4340    -2.7970 c3         1 CSC       0.210600
      5 C4          -7.1620     1.1080    -3.1500 ce         1 CSC       0.029400
      6 C9          -6.1880     2.2850    -3.0280 c          1 CSC       0.933800
      7 O4A         -5.2990     2.3040    -3.8930 o          1 CSC      -0.788300
      8 O4B         -6.3810     3.0860    -2.0990 o          1 CSC      -0.788300
      9 N5          -6.5550    -0.1070    -3.4540 nj         1 CSC      -0.347000
     10 C6          -7.2160    -1.3240    -3.8740 cy         1 CSC       0.148800
     11 C7          -5.9150    -2.0870    -3.5130 cy         1 CSC       0.003700
     12 C8          -5.4470    -0.7360    -2.9550 c          1 CSC       0.715500
     13 O9          -4.5230    -0.3640    -2.2860 o          1 CSC      -0.539500
     14 N10         -5.9570    -3.1630    -2.5870 ns         1 CSC      -0.540900
     15 C11         -5.7730    -4.4540    -2.9540 c          1 CSC       0.671100
     16 O12         -5.5700    -4.7820    -4.1100 o          1 CSC      -0.606100
     17 C13         -5.8390    -5.4580    -1.8270 c3         1 CSC      -0.157400
     18 C14         -4.6690    -6.4360    -1.8690 c3         1 CSC      -0.079400
     19 C15         -4.7680    -7.4770    -0.7620 c3         1 CSC      -0.094400
     20 C16         -3.6460    -8.4970    -0.7900 c3         1 CSC      -0.029500
     21 N17         -2.3210    -7.8590    -0.5370 nz         1 CSC      -0.841600
     22 C18         -3.7970    -9.6550     0.2360 c          1 CSC       0.927600
     23 O19         -2.7510    -9.9710     0.8380 o          1 CSC      -0.765300
     24 O20         -4.9200   -10.1610     0.3230 o          1 CSC      -0.765300
     25 O1         -10.1600     2.5890    -3.8940 os         1 CSC      -0.436900
     26 C1         -11.0180     3.6010    -3.8460 c          1 CSC       0.641100
     27 O2         -11.0480     4.4020    -2.9450 o          1 CSC      -0.551000
     28 C20        -11.9290     3.6070    -5.0370 c3         1 CSC      -0.159100
     29 H11        -10.2370     0.0440    -2.4770 h1         1 CSC       0.062200
     30 H12         -9.8470    -0.0920    -4.1790 h1         1 CSC       0.062200
     31 H3'1        -8.5730     3.2920    -2.7430 h1         1 CSC       0.072200
     32 H3'2        -9.7990     2.3740    -1.8600 h1         1 CSC       0.072200
     33 H6          -7.5060    -1.3260    -4.9250 h2         1 CSC       0.099700
     34 H7          -5.3700    -2.3880    -4.4080 h1         1 CSC       0.110700
     35 H10         -6.1300    -2.9590    -1.6150 hn         1 CSC       0.330500
     36 H131        -5.8750    -4.9570    -0.8570 hc         1 CSC       0.066700
     37 H132        -6.7810    -6.0060    -1.9270 hc         1 CSC       0.066700
     38 H141        -4.6450    -6.9400    -2.8380 hc         1 CSC       0.042200
     39 H142        -3.7360    -5.8690    -1.7880 hc         1 CSC       0.042200
     40 H151        -4.7980    -6.9900     0.2190 hc         1 CSC       0.080700
     41 H152        -5.7050    -8.0270    -0.8600 hc         1 CSC       0.080700
     42 H16         -3.5800    -8.9420    -1.7870 hx         1 CSC       0.084700
     43 H171        -1.8180    -7.5950    -1.3810 hn         1 CSC       0.440800
     44 H172        -1.7790    -8.5650    -0.0130 hn         1 CSC       0.440800
     45 H173        -2.3880    -7.0340     0.0580 hn         1 CSC       0.440800
     46 H201       -12.5530     2.7120    -5.0340 hc         1 CSC       0.059033
     47 H202       -11.3560     3.5970    -5.9640 hc         1 CSC       0.059033
     48 H203       -12.5690     4.4840    -5.0210 hc         1 CSC       0.059033
@<TRIPOS>BOND
     1     1     2 1   
     2     1    10 1   
     3     2     3 1   
     4     2    29 1   
     5     2    30 1   
     6     3     4 1   
     7     3     5 2   
     8     4    25 1   
     9     4    31 1   
    10     4    32 1   
    11     5     6 1   
    12     5     9 1   
    13     6     7 1   
    14     6     8 1   
    15     9    10 1   
    16     9    12 1   
    17    10    11 1   
    18    10    33 1   
    19    11    12 1   
    20    11    14 1   
    21    11    34 1   
    22    12    13 2   
    23    14    15 1   
    24    14    35 1   
    25    15    16 2   
    26    15    17 1   
    27    17    18 1   
    28    17    36 1   
    29    17    37 1   
    30    18    19 1   
    31    18    38 1   
    32    18    39 1   
    33    19    20 1   
    34    19    40 1   
    35    19    41 1   
    36    20    21 1   
    37    20    22 1   
    38    20    42 1   
    39    21    43 1   
    40    21    44 1   
    41    21    45 1   
    42    22    23 1   
    43    22    24 1   
    44    25    26 1   
    45    26    27 2   
    46    26    28 1   
    47    28    46 1   
    48    28    47 1   
    49    28    48 1   
@<TRIPOS>SUBSTRUCTURE
     1 CSC         1 TEMP              0 ****  ****    0 ROOT
