@<TRIPOS>MOLECULE
CSC
   48    49     1     0     0
SMALL
No Charge or Current Charge


@<TRIPOS>ATOM
      1 S1          -8.6490    -1.5640    -1.7980 ss         1 CSC      -0.509000
      2 C2          -9.4950     0.0580    -2.0730 c6         1 CSC       0.146800
      3 C3          -8.6860     1.2620    -2.5760 c2         1 CSC      -0.250400
      4 C5          -9.5750     2.4910    -2.6970 c3         1 CSC       0.233800
      5 C4          -7.3660     1.2020    -2.9570 ce         1 CSC       0.029400
      6 C9          -6.4990     2.3410    -3.5130 c          1 CSC       0.723200
      7 O4A         -5.3590     2.0790    -3.8730 o          1 CSC      -0.683000
      8 O4B         -6.9570     3.4720    -3.6130 o          1 CSC      -0.683000
      9 N5          -6.7680    -0.0810    -2.6620 nj         1 CSC      -0.280000
     10 C6          -7.4150    -1.2990    -3.1470 cy         1 CSC       0.196700
     11 C7          -6.0190    -2.0180    -3.0300 cy         1 CSC       0.003700
     12 C8          -5.4960    -0.6370    -2.5030 c          1 CSC       0.573000
     13 O9          -4.4150    -0.1960    -2.1350 o          1 CSC      -0.464000
     14 N10         -5.8770    -3.2100    -2.2040 ns         1 CSC      -0.473900
     15 C11         -6.2290    -4.4750    -2.6180 c          1 CSC       0.604100
     16 O12         -6.6620    -4.6970    -3.7410 o          1 CSC      -0.606100
     17 C13         -6.0710    -5.5740    -1.5620 c3         1 CSC      -0.157400
     18 C14         -4.8550    -6.4840    -1.8610 c3         1 CSC      -0.079400
     19 C15         -4.6690    -7.6030    -0.8100 c3         1 CSC      -0.094400
     20 C16         -3.5130    -8.5770    -1.1350 c3         1 CSC      -0.057700
     21 N17         -2.1660    -7.8420    -1.1560 nz         1 CSC      -0.979000
     22 C18         -3.5330    -9.8110    -0.1630 c          1 CSC       0.717000
     23 O19         -2.9680    -9.6960     0.9150 o          1 CSC      -0.660000
     24 O20         -3.9770   -10.8650    -0.5940 o          1 CSC      -0.660000
     25 O1          -9.9840     2.5810    -4.0720 os         1 CSC      -0.460100
     26 C1         -10.7780     3.6350    -4.4320 c          1 CSC       0.592100
     27 O2         -11.1880     4.4930    -3.6620 o          1 CSC      -0.502000
     28 C20        -11.1220     3.5960    -5.9160 c3         1 CSC      -0.159100
     29 H11         -9.9940     0.3180    -1.1280 h1         1 CSC       0.062200
     30 H12        -10.2950    -0.1380    -2.8020 h1         1 CSC       0.062200
     31 H3'1        -9.0430     3.3950    -2.3740 h1         1 CSC       0.072200
     32 H3'2       -10.4540     2.3950    -2.0440 h1         1 CSC       0.072200
     33 H6          -7.8880    -1.2350    -4.1340 h2         1 CSC       0.099700
     34 H7          -5.5860    -2.2320    -4.0130 h1         1 CSC       0.110700
     35 H10         -5.5470    -3.1280    -1.2490 hn         1 CSC       0.330500
     36 H131        -5.9340    -5.1250    -0.5720 hc         1 CSC       0.066700
     37 H132        -6.9770    -6.1920    -1.5660 hc         1 CSC       0.066700
     38 H141        -4.9790    -6.9390    -2.8520 hc         1 CSC       0.042200
     39 H142        -3.9520    -5.8630    -1.9030 hc         1 CSC       0.042200
     40 H151        -4.5050    -7.1580     0.1790 hc         1 CSC       0.080700
     41 H152        -5.6010    -8.1790    -0.7430 hc         1 CSC       0.080700
     42 H16         -3.6860    -8.9890    -2.1330 hx         1 CSC       0.084700
     43 H171        -2.1290    -7.0480    -1.8120 hn         1 CSC       0.496000
     44 H172        -1.3780    -8.4570    -1.4170 hn         1 CSC       0.496000
     45 H173        -1.9080    -7.4660    -0.2290 hn         1 CSC       0.496000
     46 H201       -11.5630     2.6220    -6.1520 hc         1 CSC       0.059033
     47 H202       -10.1910     3.5750    -6.4940 hc         1 CSC       0.059033
     48 H203       -11.7730     4.4230    -6.2200 hc         1 CSC       0.059033
@<TRIPOS>BOND
     1     1     2 1   
     2     1    10 1   
     3     2     3 1   
     4     2    29 1   
     5     2    30 1   
     6     3     4 1   
     7     3     5 2   
     8     4    25 1   
     9     4    31 1   
    10     4    32 1   
    11     5     6 1   
    12     5     9 1   
    13     6     7 1   
    14     6     8 1   
    15     9    10 1   
    16     9    12 1   
    17    10    11 1   
    18    10    33 1   
    19    11    12 1   
    20    11    14 1   
    21    11    34 1   
    22    12    13 2   
    23    14    15 1   
    24    14    35 1   
    25    15    16 2   
    26    15    17 1   
    27    17    18 1   
    28    17    36 1   
    29    17    37 1   
    30    18    19 1   
    31    18    38 1   
    32    18    39 1   
    33    19    20 1   
    34    19    40 1   
    35    19    41 1   
    36    20    21 1   
    37    20    22 1   
    38    20    42 1   
    39    21    43 1   
    40    21    44 1   
    41    21    45 1   
    42    22    23 1   
    43    22    24 1   
    44    25    26 1   
    45    26    27 2   
    46    26    28 1   
    47    28    46 1   
    48    28    47 1   
    49    28    48 1   
@<TRIPOS>SUBSTRUCTURE
     1 CSC         1 TEMP              0 ****  ****    0 ROOT
