@<TRIPOS>MOLECULE
CSD
   15    14     1     0     0
SMALL
bcc


@<TRIPOS>ATOM
      1 N           28.0950    26.3430    38.9080 n8         1 CSD      -0.900800
      2 CA          27.8770    26.8080    37.5490 c3         1 CSD       0.028500
      3 CB          28.6590    28.0960    37.3350 c3         1 CSD      -0.027100
      4 SG          28.4120    29.3070    38.6660 s4         1 CSD       0.484700
      5 C           28.2190    25.8050    36.4090 c          1 CSD       0.913600
      6 O           28.6120    24.6750    36.7480 o          1 CSD      -0.831300
      7 OXT         28.0540    26.2360    35.2500 o          1 CSD      -0.831300
      8 OD1         29.0880    30.5400    38.1750 o          1 CSD      -0.566200
      9 OD2         26.7840    29.4940    38.5260 oh         1 CSD      -0.574800
     10 H           27.4930    25.5470    39.0780 hn         1 CSD       0.334300
     11 H2          29.0350    25.9700    38.9770 hn         1 CSD       0.334300
     12 HA          26.8110    27.0410    37.4500 h1         1 CSD       0.044700
     13 HB2         29.7380    27.9100    37.3370 h1         1 CSD       0.080700
     14 HB3         28.4030    28.5890    36.3960 h1         1 CSD       0.080700
     15 HD2         26.5160    29.6410    37.6030 ho         1 CSD       0.430000
@<TRIPOS>BOND
     1     1     2 1   
     2     1    10 1   
     3     1    11 1   
     4     2     3 1   
     5     2     5 1   
     6     2    12 1   
     7     3     4 1   
     8     3    13 1   
     9     3    14 1   
    10     4     8 2   
    11     4     9 1   
    12     5     6 1   
    13     5     7 1   
    14     9    15 1   
@<TRIPOS>SUBSTRUCTURE
     1 CSD         1 TEMP              0 ****  ****    0 ROOT
