@<TRIPOS>MOLECULE
CSD
   15    14     1     0     0
SMALL
No Charge or Current Charge


@<TRIPOS>ATOM
      1 N           27.9200    26.1380    38.7600 n8         1 CSD      -0.900800
      2 CA          27.9130    26.8740    37.4370 c3         1 CSD       0.028500
      3 CB          28.7450    28.1790    37.5360 c3         1 CSD      -0.027100
      4 SG          28.1920    29.3100    38.8960 s4         1 CSD       0.484700
      5 C           28.3620    26.0520    36.1550 c          1 CSD       0.913600
      6 O           29.4810    25.5480    36.1400 o          1 CSD      -0.831300
      7 OXT         27.5460    25.8700    35.2580 o          1 CSD      -0.831300
      8 OD1         29.1240    30.5020    38.8870 o          1 CSD      -0.566200
      9 OD2         26.7840    29.7210    38.0520 oh         1 CSD      -0.574800
     10 H           27.3010    25.3210    38.6960 hn         1 CSD       0.334300
     11 H2          28.8500    25.7290    38.9070 hn         1 CSD       0.334300
     12 HA          26.8700    27.1610    37.2500 h1         1 CSD       0.044700
     13 HB2         29.7960    27.9340    37.7310 h1         1 CSD       0.080700
     14 HB3         28.6910    28.7390    36.5940 h1         1 CSD       0.080700
     15 HD2         26.2200    28.9240    38.1070 ho         1 CSD       0.430000
@<TRIPOS>BOND
     1     1     2 1   
     2     1    10 1   
     3     1    11 1   
     4     2     3 1   
     5     2     5 1   
     6     2    12 1   
     7     3     4 1   
     8     3    13 1   
     9     3    14 1   
    10     4     8 2   
    11     4     9 1   
    12     5     6 1   
    13     5     7 1   
    14     9    15 1   
@<TRIPOS>SUBSTRUCTURE
     1 CSD         1 TEMP              0 ****  ****    0 ROOT
