@<TRIPOS>MOLECULE
CSE
   13    12     1     0     0
SMALL
bcc


@<TRIPOS>ATOM
      1 N           -0.6520     1.6380    -0.3340 n8         1 CSE      -0.878800
      2 CA          -0.9170     0.2110    -0.3510 c3         1 CSE       0.009500
      3 CB           0.0550    -0.4970     0.5850 c3         1 CSE       0.160700
      4 SE           1.8790     0.1490     0.2090 sh         1 CSE      -0.556900
      5 C           -2.3590    -0.2230     0.0310 c          1 CSE       0.904600
      6 O           -3.1150     0.6460     0.5050 o          1 CSE      -0.831300
      7 OXT         -2.6250    -1.4270    -0.1590 o          1 CSE      -0.831300
      8 H           -1.1660     2.0810    -1.0860 hn         1 CSE       0.329800
      9 H2          -1.0410     2.0310     0.5150 hn         1 CSE       0.329800
     10 HA          -0.7210    -0.1470    -1.3670 h1         1 CSE       0.051700
     11 HB2         -0.1800    -0.2790     1.6300 h1         1 CSE       0.055200
     12 HB3          0.0180    -1.5750     0.4420 h1         1 CSE       0.055200
     13 HE           2.5510    -1.0320     0.7390 hs         1 CSE       0.201800
@<TRIPOS>BOND
     1     1     2 1   
     2     1     8 1   
     3     1     9 1   
     4     2     3 1   
     5     2     5 1   
     6     2    10 1   
     7     3     4 1   
     8     3    11 1   
     9     3    12 1   
    10     4    13 1   
    11     5     6 1   
    12     5     7 1   
@<TRIPOS>SUBSTRUCTURE
     1 CSE         1 TEMP              0 ****  ****    0 ROOT
