@<TRIPOS>MOLECULE
CSE
   13    12     1     0     0
SMALL
No Charge or Current Charge


@<TRIPOS>ATOM
      1 N           -0.7140     1.7200    -0.4670 n8         1 CSE      -0.878800
      2 CA          -0.8870     0.2100    -0.3760 c3         1 CSE       0.009500
      3 CB           0.1440    -0.4430     0.5830 c3         1 CSE       0.160700
      4 SE           1.9280    -0.2350     0.0810 sh         1 CSE      -0.556900
      5 C           -2.3270    -0.3180     0.0060 c          1 CSE       0.904600
      6 O           -2.8090     0.0120     1.0850 o          1 CSE      -0.831300
      7 OXT         -2.9560    -0.9650    -0.8240 o          1 CSE      -0.831300
      8 H           -1.3840     2.0980    -1.1450 hn         1 CSE       0.329800
      9 H2          -0.9960     2.1410     0.4250 hn         1 CSE       0.329800
     10 HA          -0.6800    -0.1880    -1.3780 h1         1 CSE       0.051700
     11 HB2          0.0160    -0.0300     1.5920 h1         1 CSE       0.055200
     12 HB3         -0.0600    -1.5210     0.6400 h1         1 CSE       0.055200
     13 HE           2.4520    -0.9080     1.1360 hs         1 CSE       0.201800
@<TRIPOS>BOND
     1     1     2 1   
     2     1     8 1   
     3     1     9 1   
     4     2     3 1   
     5     2     5 1   
     6     2    10 1   
     7     3     4 1   
     8     3    11 1   
     9     3    12 1   
    10     4    13 1   
    11     5     6 1   
    12     5     7 1   
@<TRIPOS>SUBSTRUCTURE
     1 CSE         1 TEMP              0 ****  ****    0 ROOT
