@<TRIPOS>MOLECULE
CSJ
   27    27     1     0     0
SMALL
No Charge or Current Charge


@<TRIPOS>ATOM
      1 N          -11.3160    -4.0330    23.7570 n8         1 CSJ      -0.998200
      2 CA         -12.3540    -3.3800    24.6500 c3         1 CSJ       0.009500
      3 C          -12.1280    -1.8490    24.9610 c          1 CSJ       0.697000
      4 O          -12.9310    -1.0420    24.5120 o          1 CSJ      -0.725000
      5 OXT        -11.1190    -1.5210    25.5710 o          1 CSJ      -0.725000
      6 CB         -12.5620    -4.1320    25.9970 c3         1 CSJ       0.117600
      7 SG         -13.0710    -5.9060    25.7580 ss         1 CSJ      -0.422600
      8 CO         -11.4470    -6.7420    25.7360 c          1 CSJ       0.651300
      9 O2         -10.4070    -6.1530    26.0140 o          1 CSJ      -0.560100
     10 C1         -11.4870    -8.2160    25.4290 ca         1 CSJ      -0.241600
     11 C2         -10.5780    -9.1200    26.0150 ca         1 CSJ       0.386000
     12 C3         -10.6390   -10.4860    25.7110 ca         1 CSJ      -0.233000
     13 N2          -9.6260    -8.7100    26.9000 nv         1 CSJ      -1.112000
     14 C4         -11.6020   -10.9750    24.8160 ca         1 CSJ      -0.042000
     15 C5         -12.5090   -10.0860    24.2250 ca         1 CSJ      -0.201000
     16 C6         -12.4550    -8.7150    24.5260 ca         1 CSJ      -0.006000
     17 HN         -11.1800    -3.4560    22.9170 hn         1 CSJ       0.388000
     18 HNA        -10.4030    -3.9910    24.2270 hn         1 CSJ       0.388000
     19 HA         -13.3080    -3.4370    24.1070 h1         1 CSJ       0.048700
     20 HB         -11.6590    -4.0710    26.6180 h1         1 CSJ       0.079700
     21 HBA        -13.3670    -3.6270    26.5470 h1         1 CSJ       0.079700
     22 H3          -9.9400   -11.1800    26.1690 ha         1 CSJ       0.099000
     23 HN2         -8.8490    -9.3350    27.0980 hn         1 CSJ       0.490500
     24 HN2A        -9.4200    -7.7100    26.9230 hn         1 CSJ       0.490500
     25 H4         -11.6450   -12.0370    24.5830 ha         1 CSJ       0.096000
     26 H5         -13.2550   -10.4580    23.5270 ha         1 CSJ       0.109000
     27 H6         -13.1630    -8.0470    24.0400 ha         1 CSJ       0.136000
@<TRIPOS>BOND
     1     1     2 1   
     2     1    17 1   
     3     1    18 1   
     4     2     3 1   
     5     2     6 1   
     6     2    19 1   
     7     3     4 1   
     8     3     5 1   
     9     6     7 1   
    10     6    20 1   
    11     6    21 1   
    12     7     8 1   
    13     8     9 2   
    14     8    10 1   
    15    10    11 ar  
    16    10    16 ar  
    17    11    12 ar  
    18    11    13 1   
    19    12    14 ar  
    20    12    22 1   
    21    13    23 1   
    22    13    24 1   
    23    14    15 ar  
    24    14    25 1   
    25    15    16 ar  
    26    15    26 1   
    27    16    27 1   
@<TRIPOS>SUBSTRUCTURE
     1 CSJ         1 TEMP              0 ****  ****    0 ROOT
