@<TRIPOS>MOLECULE
CSJ
   27    27     1     0     0
SMALL
bcc


@<TRIPOS>ATOM
      1 N          -11.1120    -4.1160    23.9480 n8         1 CSJ      -0.887800
      2 CA         -12.2440    -3.4480    24.5590 c3         1 CSJ       0.009500
      3 C          -12.0430    -1.9440    24.9140 c          1 CSJ       0.907600
      4 O          -13.0830    -1.3210    25.2100 o          1 CSJ      -0.830300
      5 OXT        -10.8790    -1.5040    24.8940 o          1 CSJ      -0.830300
      6 CB         -12.6670    -4.1640    25.8410 c3         1 CSJ       0.069700
      7 SG         -13.1200    -5.8960    25.5800 ss         1 CSJ      -0.374700
      8 CO         -11.5870    -6.7510    25.8820 c          1 CSJ       0.651300
      9 O2         -10.6530    -6.1870    26.4150 o          1 CSJ      -0.560100
     10 C1         -11.5730    -8.1730    25.5040 ca         1 CSJ      -0.241600
     11 C2         -10.5460    -9.0350    25.9750 ca         1 CSJ       0.247600
     12 C3         -10.5950   -10.3910    25.5890 ca         1 CSJ      -0.251000
     13 N2          -9.5540    -8.6340    26.8020 nv         1 CSJ      -0.863200
     14 C4         -11.5890   -10.8720    24.7720 ca         1 CSJ      -0.060000
     15 C5         -12.5910   -10.0240    24.2920 ca         1 CSJ      -0.219000
     16 C6         -12.5660    -8.7000    24.6620 ca         1 CSJ      -0.024000
     17 HN         -10.9470    -3.7020    23.0390 hn         1 CSJ       0.332800
     18 HNA        -10.2830    -3.8930    24.4860 hn         1 CSJ       0.332800
     19 HA         -13.0830    -3.5120    23.8590 h1         1 CSJ       0.048700
     20 HB         -11.8840    -4.1240    26.6010 h1         1 CSJ       0.079700
     21 HBA        -13.5550    -3.6920    26.2590 h1         1 CSJ       0.079700
     22 H3          -9.8190   -11.0580    25.9480 ha         1 CSJ       0.117000
     23 HN2         -8.7920    -9.2650    26.9790 hn         1 CSJ       0.435300
     24 HN2A        -9.3750    -7.6530    26.9230 hn         1 CSJ       0.435300
     25 H4         -11.5840   -11.9180    24.4930 ha         1 CSJ       0.114000
     26 H5         -13.3640   -10.3970    23.6360 ha         1 CSJ       0.127000
     27 H6         -13.3310    -8.0420    24.2700 ha         1 CSJ       0.154000
@<TRIPOS>BOND
     1     1     2 1   
     2     1    17 1   
     3     1    18 1   
     4     2     3 1   
     5     2     6 1   
     6     2    19 1   
     7     3     4 1   
     8     3     5 1   
     9     6     7 1   
    10     6    20 1   
    11     6    21 1   
    12     7     8 1   
    13     8     9 2   
    14     8    10 1   
    15    10    11 ar  
    16    10    16 ar  
    17    11    12 ar  
    18    11    13 1   
    19    12    14 ar  
    20    12    22 1   
    21    13    23 1   
    22    13    24 1   
    23    14    15 ar  
    24    14    25 1   
    25    15    16 ar  
    26    15    26 1   
    27    16    27 1   
@<TRIPOS>SUBSTRUCTURE
     1 CSJ         1 TEMP              0 ****  ****    0 ROOT
