@<TRIPOS>MOLECULE
CSK
   17    16     1     0     0
SMALL
No Charge or Current Charge


@<TRIPOS>ATOM
      1 N            1.3890     1.3490     1.1150 n8         1 CSK      -0.995200
      2 CA           1.7750    -0.0180     0.5790 c3         1 CSK       0.009500
      3 C            2.9430    -0.0250    -0.4800 c          1 CSK       0.694000
      4 O            2.7540     0.5210    -1.5590 o          1 CSK      -0.726500
      5 CB           0.5710    -0.8110    -0.0090 c3         1 CSK       0.126600
      6 SG          -0.6780    -1.3180     1.2740 ss         1 CSK      -0.304000
      7 SE          -2.0870     0.2340     1.2950 ss         1 CSK      -0.282000
      8 CM          -3.3320    -0.2810     0.0290 c3         1 CSK       0.083900
      9 OXT          4.0180    -0.5110    -0.1560 o          1 CSK      -0.726500
     10 HN1          2.2230     1.8100     1.4980 hn         1 CSK       0.388500
     11 HN2          1.1280     1.9530     0.3250 hn         1 CSK       0.388500
     12 HA           2.1450    -0.5990     1.4350 h1         1 CSK       0.052700
     13 HB1C         0.0760    -0.2330    -0.8000 h1         1 CSK       0.074700
     14 HB2C         0.9590    -1.7320    -0.4650 h1         1 CSK       0.074700
     15 HM1C        -2.8440    -0.3830    -0.9490 h1         1 CSK       0.047033
     16 HM2C        -3.7740    -1.2430     0.3150 h1         1 CSK       0.047033
     17 HM3C        -4.1240     0.4750    -0.0390 h1         1 CSK       0.047033
@<TRIPOS>BOND
     1     1     2 1   
     2     1    10 1   
     3     1    11 1   
     4     2     3 1   
     5     2     5 1   
     6     2    12 1   
     7     3     4 1   
     8     3     9 1   
     9     5     6 1   
    10     5    13 1   
    11     5    14 1   
    12     6     7 1   
    13     7     8 1   
    14     8    15 1   
    15     8    16 1   
    16     8    17 1   
@<TRIPOS>SUBSTRUCTURE
     1 CSK         1 TEMP              0 ****  ****    0 ROOT
