@<TRIPOS>MOLECULE
CSK
   17    16     1     0     0
SMALL
abcg2


@<TRIPOS>ATOM
      1 N            1.2330     1.2570     1.0030 n8         1 CSK      -0.995200
      2 CA           1.8150     0.0020     0.5760 c3         1 CSK       0.009500
      3 C            2.9890     0.1020    -0.4380 c          1 CSK       0.694000
      4 O            3.1880     1.2050    -0.9810 o          1 CSK      -0.726500
      5 CB           0.7490    -0.9050    -0.0330 c3         1 CSK       0.126600
      6 SG          -0.6250    -1.2640     1.1030 ss         1 CSK      -0.304000
      7 SE          -1.8830     0.5290     0.9690 ss         1 CSK      -0.282000
      8 CM          -3.4370    -0.2770     0.0910 c3         1 CSK       0.083900
      9 OXT          3.6220    -0.9550    -0.6350 o          1 CSK      -0.726500
     10 HN1          1.9190     1.7660     1.5480 hn         1 CSK       0.388500
     11 HN2          1.0670     1.8340     0.1870 hn         1 CSK       0.388500
     12 HA           2.1930    -0.5070     1.4690 h1         1 CSK       0.052700
     13 HB1C         0.3450    -0.4900    -0.9590 h1         1 CSK       0.074700
     14 HB2C         1.1820    -1.8780    -0.2710 h1         1 CSK       0.074700
     15 HM1C        -3.1680    -0.6630    -0.8900 h1         1 CSK       0.047033
     16 HM2C        -3.8620    -1.0740     0.6990 h1         1 CSK       0.047033
     17 HM3C        -4.1850     0.5080    -0.0290 h1         1 CSK       0.047033
@<TRIPOS>BOND
     1     1     2 1   
     2     1    10 1   
     3     1    11 1   
     4     2     3 1   
     5     2     5 1   
     6     2    12 1   
     7     3     4 1   
     8     3     9 1   
     9     5     6 1   
    10     5    13 1   
    11     5    14 1   
    12     6     7 1   
    13     7     8 1   
    14     8    15 1   
    15     8    16 1   
    16     8    17 1   
@<TRIPOS>SUBSTRUCTURE
     1 CSK         1 TEMP              0 ****  ****    0 ROOT
