@<TRIPOS>MOLECULE
CSN
   19    19     1     0     0
SMALL
No Charge or Current Charge


@<TRIPOS>ATOM
      1 S1           2.5510    -0.6410    -0.0140 s6         1 CSN       1.479300
      2 O4           1.3200    -0.2840     1.0180 os         1 CSN      -0.483800
      3 O3           1.8940    -1.2620    -1.1720 o          1 CSN      -0.682867
      4 O2           3.4170    -1.5420     0.7580 o          1 CSN      -0.682867
      5 O1           3.1360     0.6800    -0.2870 o          1 CSN      -0.682867
      6 O7           1.2640     2.4630     0.1670 oh         1 CSN      -0.524100
      7 O6          -3.4210    -1.8680     0.3940 o          1 CSN      -0.428000
      8 O5          -4.5260    -0.1420    -0.3550 o          1 CSN      -0.428000
      9 C6          -1.0110    -0.4440     0.5040 ca         1 CSN      -0.025000
     10 N1          -3.4830    -0.6850     0.0330 no         1 CSN       0.707200
     11 C3          -1.0640     2.2520    -0.2860 ca         1 CSN      -0.177000
     12 C1           0.1740     0.3150     0.5320 ca         1 CSN       0.082100
     13 C4          -2.2430     1.4900    -0.3290 ca         1 CSN      -0.039000
     14 C2           0.1440     1.6780     0.1380 ca         1 CSN       0.177100
     15 C5          -2.2280     0.1320     0.0670 ca         1 CSN      -0.224200
     16 HO7          2.0530     1.8590     0.0910 ho         1 CSN       0.510000
     17 H6          -0.9690    -1.4820     0.8270 ha         1 CSN       0.167000
     18 H3          -1.0870     3.2970    -0.5870 ha         1 CSN       0.124000
     19 H4          -3.1640     1.9630    -0.6660 ha         1 CSN       0.133000
@<TRIPOS>BOND
     1     1     2 1   
     2     1     3 1   
     3     1     4 1   
     4     1     5 1   
     5     2    12 1   
     6     6    14 1   
     7     6    16 1   
     8     7    10 1   
     9     8    10 1   
    10     9    12 ar  
    11     9    15 ar  
    12     9    17 1   
    13    10    15 1   
    14    11    13 ar  
    15    11    14 ar  
    16    11    18 1   
    17    12    14 ar  
    18    13    15 ar  
    19    13    19 1   
@<TRIPOS>SUBSTRUCTURE
     1 CSN         1 TEMP              0 ****  ****    0 ROOT
