@<TRIPOS>MOLECULE
CSN
   19    19     1     0     0
SMALL
abcg2


@<TRIPOS>ATOM
      1 S1           2.4320    -0.8100    -0.1370 s6         1 CSN       1.479300
      2 O4           1.3760    -0.0930     0.9880 os         1 CSN      -0.483800
      3 O3           1.5800    -1.6730    -0.9410 o          1 CSN      -0.682867
      4 O2           3.3470    -1.4750     0.7780 o          1 CSN      -0.682867
      5 O1           2.9890     0.3340    -0.8570 o          1 CSN      -0.682867
      6 O7           1.1550     2.5890     0.3030 oh         1 CSN      -0.524100
      7 O6          -3.1700    -1.8730     0.1950 o          1 CSN      -0.428000
      8 O5          -4.3390    -0.1940    -0.4100 o          1 CSN      -0.428000
      9 C6          -0.9170    -0.4060     0.4220 ca         1 CSN      -0.025000
     10 N1          -3.2920    -0.6970    -0.0690 no         1 CSN       0.707200
     11 C3          -1.1170     2.3030    -0.1750 ca         1 CSN      -0.177000
     12 C1           0.1950     0.4030     0.5270 ca         1 CSN       0.082100
     13 C4          -2.2330     1.5020    -0.2750 ca         1 CSN      -0.039000
     14 C2           0.1130     1.7700     0.2150 ca         1 CSN       0.177100
     15 C5          -2.1270     0.1490     0.0270 ca         1 CSN      -0.224200
     16 HO7          1.9540     2.1090     0.5590 ho         1 CSN       0.510000
     17 H6          -0.8310    -1.4540     0.6690 ha         1 CSN       0.167000
     18 H3          -1.1860     3.3580    -0.4060 ha         1 CSN       0.124000
     19 H4          -3.1740     1.9360    -0.5790 ha         1 CSN       0.133000
@<TRIPOS>BOND
     1     1     2 1   
     2     1     3 1   
     3     1     4 1   
     4     1     5 1   
     5     2    12 1   
     6     6    14 1   
     7     6    16 1   
     8     7    10 1   
     9     8    10 1   
    10     9    12 ar  
    11     9    15 ar  
    12     9    17 1   
    13    10    15 1   
    14    11    13 ar  
    15    11    14 ar  
    16    11    18 1   
    17    12    14 ar  
    18    13    15 ar  
    19    13    19 1   
@<TRIPOS>SUBSTRUCTURE
     1 CSN         1 TEMP              0 ****  ****    0 ROOT
