@<TRIPOS>MOLECULE
CSO
   14    13     1     0     0
SMALL
bcc


@<TRIPOS>ATOM
      1 N           22.9470     5.5120    17.8580 n8         1 CSO      -0.877800
      2 CA          23.9780     4.5990    18.3140 c3         1 CSO       0.012500
      3 CB          23.6730     3.1750    17.8470 c3         1 CSO       0.019700
      4 SG          22.1250     2.4800    18.4560 ss         1 CSO      -0.100300
      5 C           25.4260     4.9510    17.8600 c          1 CSO       0.904600
      6 O           26.3430     4.3400    18.4440 o          1 CSO      -0.834300
      7 OXT         25.5410     5.7860    16.9420 o          1 CSO      -0.834300
      8 OD          22.4220     2.3720    20.0940 oh         1 CSO      -0.520800
      9 H           22.9870     6.3560    18.4160 hn         1 CSO       0.328800
     10 HN2         23.2030     5.8130    16.9230 hn         1 CSO       0.328800
     11 HA          23.9720     4.5930    19.4090 h1         1 CSO       0.048700
     12 HB2         23.5620     3.1470    16.7570 h1         1 CSO       0.067200
     13 HB3         24.4900     2.4980    18.1010 h1         1 CSO       0.067200
     14 HD          22.8790     1.5390    20.2670 ho         1 CSO       0.391000
@<TRIPOS>BOND
     1     1     2 1   
     2     1     9 1   
     3     1    10 1   
     4     2     3 1   
     5     2     5 1   
     6     2    11 1   
     7     3     4 1   
     8     3    12 1   
     9     3    13 1   
    10     4     8 1   
    11     5     6 1   
    12     5     7 1   
    13     8    14 1   
@<TRIPOS>SUBSTRUCTURE
     1 CSO         1 TEMP              0 ****  ****    0 ROOT
