@<TRIPOS>MOLECULE
CSO
   14    13     1     0     0
SMALL
No Charge or Current Charge


@<TRIPOS>ATOM
      1 N           22.9510     5.6600    17.9370 n8         1 CSO      -0.988200
      2 CA          23.9680     4.6030    18.3210 c3         1 CSO       0.012500
      3 CB          23.5810     3.2020    17.7720 c3         1 CSO       0.067600
      4 SG          22.0410     2.5210    18.5570 ss         1 CSO      -0.148200
      5 C           25.4640     4.9180    17.9250 c          1 CSO       0.694000
      6 O           26.2720     5.1150    18.8220 o          1 CSO      -0.729000
      7 OXT         25.7390     5.0360    16.7380 o          1 CSO      -0.729000
      8 OD          22.5930     2.1750    20.1220 oh         1 CSO      -0.559800
      9 H           23.2210     6.5560    18.3630 hn         1 CSO       0.384000
     10 HN2         23.0350     5.8460    16.9300 hn         1 CSO       0.384000
     11 HA          23.9560     4.5320    19.4170 h1         1 CSO       0.048700
     12 HB2         23.4300     3.2610    16.6860 h1         1 CSO       0.067200
     13 HB3         24.4000     2.4960    17.9590 h1         1 CSO       0.067200
     14 HD          22.8970     1.2400    20.1390 ho         1 CSO       0.430000
@<TRIPOS>BOND
     1     1     2 1   
     2     1     9 1   
     3     1    10 1   
     4     2     3 1   
     5     2     5 1   
     6     2    11 1   
     7     3     4 1   
     8     3    12 1   
     9     3    13 1   
    10     4     8 1   
    11     5     6 1   
    12     5     7 1   
    13     8    14 1   
@<TRIPOS>SUBSTRUCTURE
     1 CSO         1 TEMP              0 ****  ****    0 ROOT
