@<TRIPOS>MOLECULE
CSP
   16    15     1     0     0
SMALL
bcc


@<TRIPOS>ATOM
      1 N           41.5820    17.6260    10.1740 n8         1 CSP      -0.900800
      2 CA          42.0090    18.2120     8.9130 c3         1 CSP       0.030500
      3 CB          43.5010    18.0360     8.6090 c3         1 CSP       0.160700
      4 SG          44.0230    16.2890     8.5160 ss         1 CSP      -0.691500
      5 C           41.1510    17.7090     7.7270 c          1 CSP       0.960600
      6 O           40.4090    16.7270     7.9190 o          1 CSP      -0.855300
      7 OXT         41.2940    18.3410     6.6610 o          1 CSP      -0.855300
      8 P           45.2410    16.2070     6.6100 p5         1 CSP       1.149900
      9 O1P         45.7180    14.7710     6.7350 o          1 CSP      -0.884500
     10 O2P         46.2910    17.2890     6.8080 o          1 CSP      -0.884500
     11 O3P         44.2430    16.4820     5.4960 o          1 CSP      -0.884500
     12 H           41.5530    16.6200    10.0630 hn         1 CSP       0.316800
     13 H2          42.2800    17.8110    10.8840 hn         1 CSP       0.316800
     14 HA          41.8460    19.2960     8.9830 h1         1 CSP      -0.015300
     15 HB2         43.7430    18.5290     7.6670 h1         1 CSP       0.017700
     16 HB3         44.0840    18.5380     9.3870 h1         1 CSP       0.017700
@<TRIPOS>BOND
     1     1     2 1   
     2     1    12 1   
     3     1    13 1   
     4     2     3 1   
     5     2     5 1   
     6     2    14 1   
     7     3     4 1   
     8     3    15 1   
     9     3    16 1   
    10     4     8 1   
    11     5     6 1   
    12     5     7 1   
    13     8     9 1   
    14     8    10 1   
    15     8    11 1   
@<TRIPOS>SUBSTRUCTURE
     1 CSP         1 TEMP              0 ****  ****    0 ROOT
