@<TRIPOS>MOLECULE
CSP
   16    15     1     0     0
SMALL
No Charge or Current Charge


@<TRIPOS>ATOM
      1 N           41.9270    17.6860    10.2530 n8         1 CSP      -0.900800
      2 CA          41.9410    18.2190     8.8300 c3         1 CSP       0.030500
      3 CB          43.2720    17.8770     8.1010 c3         1 CSP       0.160700
      4 SG          43.6370    16.0560     8.0530 ss         1 CSP      -0.691500
      5 C           40.7140    17.8830     7.8700 c          1 CSP       0.960600
      6 O           39.9760    16.9330     8.1310 o          1 CSP      -0.855300
      7 OXT         40.4380    18.6810     6.9770 o          1 CSP      -0.855300
      8 P           45.4640    16.1350     7.0210 p5         1 CSP       1.149900
      9 O1P         45.9640    14.7430     6.8550 o          1 CSP      -0.884500
     10 O2P         46.4070    16.9610     7.8220 o          1 CSP      -0.884500
     11 O3P         45.2180    16.7880     5.7080 o          1 CSP      -0.884500
     12 H           41.9170    16.6620    10.1950 hn         1 CSP       0.316800
     13 H2          42.8260    17.8990    10.6950 hn         1 CSP       0.316800
     14 HA          41.9350    19.3120     8.9460 h1         1 CSP      -0.015300
     15 HB2         43.2360    18.2670     7.0760 h1         1 CSP       0.017700
     16 HB3         44.0970    18.3810     8.6210 h1         1 CSP       0.017700
@<TRIPOS>BOND
     1     1     2 1   
     2     1    12 1   
     3     1    13 1   
     4     2     3 1   
     5     2     5 1   
     6     2    14 1   
     7     3     4 1   
     8     3    15 1   
     9     3    16 1   
    10     4     8 1   
    11     5     6 1   
    12     5     7 1   
    13     8     9 1   
    14     8    10 1   
    15     8    11 1   
@<TRIPOS>SUBSTRUCTURE
     1 CSP         1 TEMP              0 ****  ****    0 ROOT
