@<TRIPOS>MOLECULE
CSQ
   61    64     1     0     0
SMALL
No Charge or Current Charge


@<TRIPOS>ATOM
      1 O1          -3.7220     2.7420     3.4250 oh         1 CSQ      -0.700000
      2 C2          -3.7480     2.7040     1.9860 c3         1 CSQ       0.150600
      3 C3          -2.3590     2.3160     1.4010 c5         1 CSQ       0.165300
      4 O4          -2.1180     0.8970     1.6440 os         1 CSQ      -0.417000
      5 C5          -2.2580     2.5100    -0.1570 c5         1 CSQ       0.157300
      6 O6          -0.8660     2.8790    -0.4170 os         1 CSQ      -0.553400
      7 C7          -2.5950     1.0650    -0.6680 c5         1 CSQ       0.114300
      8 O8          -2.2700     0.8030    -2.0500 oh         1 CSQ      -0.710000
      9 C9          -1.7560     0.2960     0.3890 c5         1 CSQ       0.333700
     10 N10         -2.0510    -1.1580     0.2910 n          1 CSQ      -0.319000
     11 C11         -3.2130    -1.7070     0.8800 c          1 CSQ       0.724400
     12 N12         -3.3690    -3.0670     0.8540 nc         1 CSQ      -0.776100
     13 C13         -2.4820    -3.8150     0.2930 cd         1 CSQ       0.789500
     14 C14         -1.3160    -3.3380    -0.3340 cd         1 CSQ      -0.481600
     15 C15         -1.1150    -1.9800    -0.3300 cc         1 CSQ       0.033600
     16 O16         -4.0950    -1.0270     1.3760 o          1 CSQ      -0.560000
     17 N17         -2.7330    -5.1070     0.3360 nv         1 CSQ      -1.032200
     18 P18         -0.3390     3.5030    -1.8220 p5         1 CSQ       1.134200
     19 O19          0.4760     4.7400    -1.6900 o          1 CSQ      -0.475000
     20 S20         -2.0430     3.7440    -3.0150 sh         1 CSQ      -0.542200
     21 O21          0.3940     2.2920    -2.6000 os         1 CSQ      -0.546400
     22 C22          1.8080     2.0210    -2.4580 c3         1 CSQ       0.200600
     23 C23          2.1910     1.6990    -0.9860 c5         1 CSQ       0.128300
     24 O24          1.4890     0.5310    -0.5320 os         1 CSQ      -0.430000
     25 C25          3.6700     1.2650    -0.7610 c5         1 CSQ       0.092300
     26 O26          4.6070     2.3580    -0.8040 oh         1 CSQ      -0.701000
     27 C27          3.5780     0.6670     0.6810 c5         1 CSQ       0.107300
     28 O28          3.8120     1.7350     1.6070 oh         1 CSQ      -0.695000
     29 C29          2.0930     0.1340     0.7150 c5         1 CSQ       0.341700
     30 N30          2.1180    -1.3480     0.8160 n          1 CSQ      -0.343000
     31 C31          1.7820    -1.9350     2.0510 c          1 CSQ       0.612000
     32 N32          1.7750    -3.2940     2.0870 ns         1 CSQ      -0.468500
     33 C33          2.0520    -4.1600     1.0800 c          1 CSQ       0.590200
     34 C34          2.4040    -3.5030    -0.1740 cc         1 CSQ      -0.387200
     35 C35          2.4350    -2.1330    -0.2940 cd         1 CSQ       0.006600
     36 O36          1.5050    -1.2880     3.0460 o          1 CSQ      -0.550000
     37 O37          2.0060    -5.3680     1.2300 o          1 CSQ      -0.523000
     38 HO1         -4.6460     2.9020     3.7300 ho         1 CSQ       0.510000
     39 H2          -4.4990     1.9840     1.6310 h1         1 CSQ       0.035200
     40 H2A         -4.0270     3.6920     1.5940 h1         1 CSQ       0.035200
     41 H3          -1.5890     2.9090     1.9130 h1         1 CSQ       0.097700
     42 H5          -2.9480     3.2840    -0.5180 h1         1 CSQ       0.079700
     43 H7          -3.6640     0.8640    -0.5000 h1         1 CSQ       0.097700
     44 HO8         -2.4430    -0.1540    -2.2190 ho         1 CSQ       0.520000
     45 H9          -0.6880     0.4360     0.2120 h2         1 CSQ       0.073700
     46 H14         -0.6130    -4.0160    -0.8010 ha         1 CSQ       0.205000
     47 H15         -0.2730    -1.4510    -0.7720 h4         1 CSQ       0.204000
     48 HN17        -3.4380    -5.3510     1.0170 hn         1 CSQ       0.503000
     49 HN1A        -1.9260    -5.7150     0.3000 hn         1 CSQ       0.503000
     50 HS20        -2.1250     2.3960    -2.8650 hs         1 CSQ       0.317800
     51 H22          2.0890     1.1670    -3.0870 h1         1 CSQ       0.068200
     52 H22A         2.3990     2.8840    -2.7960 h1         1 CSQ       0.068200
     53 H23          1.9360     2.5520    -0.3410 h1         1 CSQ       0.111700
     54 H25          3.9530     0.4820    -1.4800 h1         1 CSQ       0.051700
     55 HO26         5.1070     2.2980    -1.6550 ho         1 CSQ       0.523000
     56 H27          4.3100    -0.1410     0.8250 h1         1 CSQ       0.077700
     57 HO28         4.3030     2.3920     1.0450 ho         1 CSQ       0.528000
     58 H29          1.5400     0.5520     1.5660 h2         1 CSQ       0.132700
     59 H34          2.6350    -4.1620    -1.0040 ha         1 CSQ       0.223000
     60 H35          2.6780    -1.5890    -1.2050 h4         1 CSQ       0.217000
     61 HN32         1.5310    -3.7090     2.9710 hn         1 CSQ       0.344500
@<TRIPOS>BOND
     1     1     2 1   
     2     1    38 1   
     3     2     3 1   
     4     2    39 1   
     5     2    40 1   
     6     3     4 1   
     7     3     5 1   
     8     3    41 1   
     9     4     9 1   
    10     5     6 1   
    11     5     7 1   
    12     5    42 1   
    13     6    18 1   
    14     7     8 1   
    15     7     9 1   
    16     7    43 1   
    17     8    44 1   
    18     9    10 1   
    19     9    45 1   
    20    10    11 1   
    21    10    15 1   
    22    11    12 1   
    23    11    16 2   
    24    12    13 2   
    25    13    14 1   
    26    13    17 1   
    27    14    15 2   
    28    14    46 1   
    29    15    47 1   
    30    17    48 1   
    31    17    49 1   
    32    18    19 2   
    33    18    20 1   
    34    18    21 1   
    35    20    50 1   
    36    21    22 1   
    37    22    23 1   
    38    22    51 1   
    39    22    52 1   
    40    23    24 1   
    41    23    25 1   
    42    23    53 1   
    43    24    29 1   
    44    25    26 1   
    45    25    27 1   
    46    25    54 1   
    47    26    55 1   
    48    27    28 1   
    49    27    29 1   
    50    27    56 1   
    51    28    57 1   
    52    29    30 1   
    53    29    58 1   
    54    30    31 1   
    55    30    35 1   
    56    31    32 1   
    57    31    36 2   
    58    32    33 1   
    59    32    61 1   
    60    33    34 1   
    61    33    37 2   
    62    34    35 2   
    63    34    59 1   
    64    35    60 1   
@<TRIPOS>SUBSTRUCTURE
     1 CSQ         1 TEMP              0 ****  ****    0 ROOT
