@<TRIPOS>MOLECULE
CSQ
   61    64     1     0     0
SMALL
abcg2


@<TRIPOS>ATOM
      1 O1          -4.7310     2.5280     2.7850 oh         1 CSQ      -0.700000
      2 C2          -4.2790     2.6820     1.4630 c3         1 CSQ       0.150600
      3 C3          -3.1830     1.6620     1.2220 c5         1 CSQ       0.165300
      4 O4          -3.6600     0.3280     1.3990 os         1 CSQ      -0.417000
      5 C5          -2.6420     1.7220    -0.2030 c5         1 CSQ       0.157300
      6 O6          -1.2850     1.2700    -0.2100 os         1 CSQ      -0.553400
      7 C7          -3.4850     0.6660    -0.9190 c5         1 CSQ       0.114300
      8 O8          -2.8950     0.0990    -2.0470 oh         1 CSQ      -0.710000
      9 C9          -3.6130    -0.3770     0.1930 c5         1 CSQ       0.333700
     10 N10         -4.7270    -1.2970     0.0870 n          1 CSQ      -0.319000
     11 C11         -6.0620    -0.8460     0.0420 c          1 CSQ       0.724400
     12 N12         -7.0430    -1.7680    -0.0290 nc         1 CSQ      -0.776100
     13 C13         -6.7730    -3.0580    -0.0570 cd         1 CSQ       0.789500
     14 C14         -5.4340    -3.5530    -0.0110 cd         1 CSQ      -0.481600
     15 C15         -4.4590    -2.6290     0.0660 cc         1 CSQ       0.033600
     16 O16         -6.2940     0.3540     0.0630 o          1 CSQ      -0.560000
     17 N17         -7.7890    -3.9150    -0.1280 nv         1 CSQ      -1.032200
     18 P18         -0.0930     2.1420    -0.8000 p5         1 CSQ       1.134200
     19 O19          0.2500     3.3980    -0.1030 o          1 CSQ      -0.475000
     20 S20         -0.5220     2.6020    -2.7800 sh         1 CSQ      -0.542200
     21 O21          0.9890     0.9710    -0.7960 os         1 CSQ      -0.546400
     22 C22          2.3240     1.1990    -1.2510 c3         1 CSQ       0.200600
     23 C23          3.2410     1.5940    -0.1190 c5         1 CSQ       0.128300
     24 O24          3.2480     0.5880     0.8900 os         1 CSQ      -0.430000
     25 C25          4.6950     1.7130    -0.5640 c5         1 CSQ       0.092300
     26 O26          4.9380     2.9880    -1.0820 oh         1 CSQ      -0.701000
     27 C27          5.4410     1.4120     0.7400 c5         1 CSQ       0.107300
     28 O28          5.4280     2.5220     1.5940 oh         1 CSQ      -0.695000
     29 C29          4.5370     0.3470     1.3620 c5         1 CSQ       0.341700
     30 N30          4.9580    -1.0210     0.9850 n          1 CSQ      -0.343000
     31 C31          6.0690    -1.5160     1.6360 c          1 CSQ       0.612000
     32 N32          6.4360    -2.7840     1.2740 ns         1 CSQ      -0.468500
     33 C33          5.8210    -3.6160     0.3490 c          1 CSQ       0.590200
     34 C34          4.6570    -3.0260    -0.2610 cc         1 CSQ      -0.387200
     35 C35          4.2800    -1.7830     0.0810 cd         1 CSQ       0.006600
     36 O36          6.6750    -0.8710     2.4660 o          1 CSQ      -0.550000
     37 O37          6.2660    -4.7260     0.1240 o          1 CSQ      -0.523000
     38 HO1         -5.4820     3.1140     2.9140 ho         1 CSQ       0.510000
     39 H2          -5.0880     2.5510     0.7380 h1         1 CSQ       0.035200
     40 H2A         -3.8450     3.6770     1.2940 h1         1 CSQ       0.035200
     41 H3          -2.3770     1.8400     1.9410 h1         1 CSQ       0.097700
     42 H5          -2.7330     2.7170    -0.6460 h1         1 CSQ       0.079700
     43 H7          -4.4570     1.1070    -1.1450 h1         1 CSQ       0.097700
     44 HO8         -3.2950     0.4810    -2.8330 ho         1 CSQ       0.520000
     45 H9          -2.7190    -1.0120     0.1570 h2         1 CSQ       0.073700
     46 H14         -5.2070    -4.6080    -0.0290 ha         1 CSQ       0.205000
     47 H15         -3.4160    -2.9080     0.1160 h4         1 CSQ       0.204000
     48 HN17        -8.7360    -3.5780    -0.1500 hn         1 CSQ       0.503000
     49 HN1A        -7.6390    -4.9080    -0.1440 hn         1 CSQ       0.503000
     50 HS20        -0.8290     1.3590    -3.1730 hs         1 CSQ       0.317800
     51 H22          2.6470     0.2650    -1.7130 h1         1 CSQ       0.068200
     52 H22A         2.3580     1.9710    -2.0270 h1         1 CSQ       0.068200
     53 H23          2.9060     2.5420     0.3170 h1         1 CSQ       0.111700
     54 H25          4.9260     0.9280    -1.2980 h1         1 CSQ       0.051700
     55 HO26         5.7470     2.9650    -1.6050 ho         1 CSQ       0.523000
     56 H27          6.4580     1.0470     0.5570 h1         1 CSQ       0.077700
     57 HO28         5.5570     3.3120     1.0550 ho         1 CSQ       0.528000
     58 H29          4.5500     0.3960     2.4520 h2         1 CSQ       0.132700
     59 H34          4.0870    -3.5910    -0.9820 ha         1 CSQ       0.223000
     60 H35          3.3950    -1.3410    -0.3470 h4         1 CSQ       0.217000
     61 HN32         7.2550    -3.1470     1.7460 hn         1 CSQ       0.344500
@<TRIPOS>BOND
     1     1     2 1   
     2     1    38 1   
     3     2     3 1   
     4     2    39 1   
     5     2    40 1   
     6     3     4 1   
     7     3     5 1   
     8     3    41 1   
     9     4     9 1   
    10     5     6 1   
    11     5     7 1   
    12     5    42 1   
    13     6    18 1   
    14     7     8 1   
    15     7     9 1   
    16     7    43 1   
    17     8    44 1   
    18     9    10 1   
    19     9    45 1   
    20    10    11 1   
    21    10    15 1   
    22    11    12 1   
    23    11    16 2   
    24    12    13 2   
    25    13    14 1   
    26    13    17 1   
    27    14    15 2   
    28    14    46 1   
    29    15    47 1   
    30    17    48 1   
    31    17    49 1   
    32    18    19 2   
    33    18    20 1   
    34    18    21 1   
    35    20    50 1   
    36    21    22 1   
    37    22    23 1   
    38    22    51 1   
    39    22    52 1   
    40    23    24 1   
    41    23    25 1   
    42    23    53 1   
    43    24    29 1   
    44    25    26 1   
    45    25    27 1   
    46    25    54 1   
    47    26    55 1   
    48    27    28 1   
    49    27    29 1   
    50    27    56 1   
    51    28    57 1   
    52    29    30 1   
    53    29    58 1   
    54    30    31 1   
    55    30    35 1   
    56    31    32 1   
    57    31    36 2   
    58    32    33 1   
    59    32    61 1   
    60    33    34 1   
    61    33    37 2   
    62    34    35 2   
    63    34    59 1   
    64    35    60 1   
@<TRIPOS>SUBSTRUCTURE
     1 CSQ         1 TEMP              0 ****  ****    0 ROOT
