@<TRIPOS>MOLECULE
CSS
   14    13     1     0     0
SMALL
bcc


@<TRIPOS>ATOM
      1 N           12.6840    30.8530     7.7840 n8         1 CSS      -0.876800
      2 CA          12.1190    29.5210     7.8320 c3         1 CSS       0.008500
      3 CB          10.5950    29.4810     7.9810 c3         1 CSS       0.020700
      4 SG           9.9580    30.3740     9.4370 ss         1 CSS      -0.265100
      5 SD          10.6790    29.2500    11.0060 sh         1 CSS      -0.270800
      6 C           12.4650    28.7080     6.5550 c          1 CSS       0.938600
      7 O           12.3930    27.4700     6.6680 o          1 CSS      -0.822800
      8 OXT         12.7350    29.3600     5.5290 o          1 CSS      -0.822800
      9 H           12.2640    31.4350     8.5000 hn         1 CSS       0.329300
     10 HN2         12.4550    31.2700     6.8910 hn         1 CSS       0.329300
     11 HA          12.5450    28.9890     8.6900 h1         1 CSS       0.055700
     12 HB2         10.1160    29.9890     7.1380 h1         1 CSS       0.082200
     13 HB3         10.2230    28.4570     8.0140 h1         1 CSS       0.082200
     14 HD          11.8690    29.8440    11.1820 hs         1 CSS       0.212800
@<TRIPOS>BOND
     1     1     2 1   
     2     1     9 1   
     3     1    10 1   
     4     2     3 1   
     5     2     6 1   
     6     2    11 1   
     7     3     4 1   
     8     3    12 1   
     9     3    13 1   
    10     4     5 1   
    11     5    14 1   
    12     6     7 1   
    13     6     8 1   
@<TRIPOS>SUBSTRUCTURE
     1 CSS         1 TEMP              0 ****  ****    0 ROOT
