@<TRIPOS>MOLECULE
CSS
   14    13     1     0     0
SMALL
No Charge or Current Charge


@<TRIPOS>ATOM
      1 N           12.7500    30.8770     7.8290 n8         1 CSS      -0.987200
      2 CA          12.0990    29.5090     7.7910 c3         1 CSS       0.008500
      3 CB          10.5560    29.6220     7.9140 c3         1 CSS       0.068600
      4 SG          10.0330    30.5090     9.4610 ss         1 CSS      -0.313000
      5 SD          10.5890    29.1930    10.9980 sh         1 CSS      -0.270800
      6 C           12.4650    28.5880     6.5620 c          1 CSS       0.728000
      7 O           13.1350    27.5840     6.7670 o          1 CSS      -0.717500
      8 OXT         12.0960    28.9320     5.4450 o          1 CSS      -0.717500
      9 H           12.3030    31.4260     8.5730 hn         1 CSS       0.384500
     10 HN2         12.5080    31.3860     6.9700 hn         1 CSS       0.384500
     11 HA          12.4480    28.9700     8.6830 h1         1 CSS       0.055700
     12 HB2         10.1560    30.1610     7.0440 h1         1 CSS       0.082200
     13 HB3         10.1130    28.6170     7.9180 h1         1 CSS       0.082200
     14 HD          11.8490    29.6280    11.2520 hs         1 CSS       0.212800
@<TRIPOS>BOND
     1     1     2 1   
     2     1     9 1   
     3     1    10 1   
     4     2     3 1   
     5     2     6 1   
     6     2    11 1   
     7     3     4 1   
     8     3    12 1   
     9     3    13 1   
    10     4     5 1   
    11     5    14 1   
    12     6     7 1   
    13     6     8 1   
@<TRIPOS>SUBSTRUCTURE
     1 CSS         1 TEMP              0 ****  ****    0 ROOT
