@<TRIPOS>MOLECULE
CST
   84    86     1     0     0
SMALL
No Charge or Current Charge


@<TRIPOS>ATOM
      1 C1          -1.6110     3.5220    -1.9480 ca         1 CST      -0.148000
      2 C2          -0.2150     3.3750    -1.9940 ca         1 CST      -0.115500
      3 C3           0.4110     2.9610    -3.1830 ca         1 CST      -0.098000
      4 C4          -0.3570     2.6890    -4.3340 ca         1 CST      -0.057300
      5 C5          -1.7570     2.8360    -4.2800 ca         1 CST      -0.098000
      6 C6          -2.3820     3.2510    -3.0910 ca         1 CST      -0.115500
      7 C7           0.3210     2.2280    -5.6230 c3         1 CST      -0.036100
      8 C8           0.2890     0.6910    -5.8280 c3         1 CST      -0.033300
      9 C9           1.0620     0.2790    -7.1170 c          1 CST       0.714000
     10 C11          0.8730    -0.9500    -2.3480 c3         1 CST       0.029700
     11 C12          1.2210    -2.4610    -2.4640 c3         1 CST      -0.078400
     12 C13          2.2140    -3.0160    -1.4040 c3         1 CST      -0.056700
     13 C14          2.2840    -4.5590    -1.4660 c3         1 CST      -0.087100
     14 C15          3.6290    -2.4040    -1.5360 c3         1 CST      -0.087100
     15 C17         -0.4420    -0.0070     1.2030 c3         1 CST       0.042700
     16 C18         -1.6450     0.9070     0.7840 c6         1 CST       0.146500
     17 C19         -2.4840     1.4330     1.9810 c6         1 CST      -0.105400
     18 C20         -3.7080     2.2000     1.4500 c6         1 CST       0.220800
     19 C21         -3.6960     0.5750    -0.3770 c2         1 CST       0.813100
     20 C23          1.1780    -0.1870     5.9440 c3         1 CST      -0.036300
     21 C24          1.3350     0.9320     7.0180 c          1 CST       0.710000
     22 C25          2.3980    -1.1460     5.9340 c3         1 CST      -0.034100
     23 C26          2.3340    -2.1960     4.8270 ca         1 CST      -0.044300
     24 C27          3.0300    -1.9980     3.6180 ca         1 CST      -0.111500
     25 C28          2.9510    -2.9500     2.5870 ca         1 CST      -0.113500
     26 C29          2.1780    -4.1100     2.7590 ca         1 CST      -0.130000
     27 C30          1.4840    -4.3160     3.9630 ca         1 CST      -0.113500
     28 C31          1.5610    -3.3630     4.9940 ca         1 CST      -0.111500
     29 N1           0.8200    -0.0260    -4.6420 ns         1 CST      -0.458900
     30 N2           0.0980    -0.6740    -1.1200 ns         1 CST      -0.488900
     31 N3          -2.5040     0.1940    -0.1970 n2         1 CST      -0.752900
     32 N4          -4.6260    -0.0790    -1.0220 nv         1 CST      -1.021200
     33 N5          -4.3800     1.3600     0.4550 nu         1 CST      -0.952400
     34 N6           0.2480     0.4460     2.4360 ns         1 CST      -0.489900
     35 N7           0.9400     0.3980     4.6020 ns         1 CST      -0.456900
     36 O1           0.4130    -0.0790    -8.0910 o          1 CST      -0.731000
     37 O4          -0.7570    -0.9760     3.9130 o          1 CST      -0.644100
     38 O9           2.2860     0.2440    -7.0790 o          1 CST      -0.731000
     39 H1          -2.0950     3.8430    -1.0290 ha         1 CST       0.090000
     40 H2           0.3840     3.5810    -1.1090 ha         1 CST       0.107000
     41 H3           1.4920     2.8470    -3.2080 ha         1 CST       0.112000
     42 H5          -2.3610     2.6220    -5.1590 ha         1 CST       0.112000
     43 H6          -3.4640     3.3580    -3.0550 ha         1 CST       0.107000
     44 H71          1.3650     2.5650    -5.6320 hc         1 CST       0.049700
     45 H72         -0.1550     2.7090    -6.4860 hc         1 CST       0.049700
     46 H8          -0.7560     0.3880    -5.9740 h1         1 CST       0.060700
     47 H11          1.7950    -0.3560    -2.3320 h1         1 CST       0.079700
     48 H121         1.6380    -2.6520    -3.4610 hc         1 CST       0.052700
     49 H122         0.2850    -3.0320    -2.4140 hc         1 CST       0.052700
     50 H13          1.8300    -2.7590    -0.4090 hc         1 CST       0.049700
     51 H141         2.9520    -4.9480    -0.6880 hc         1 CST       0.027867
     52 H142         1.2920    -4.9990    -1.3080 hc         1 CST       0.027867
     53 H143         2.6590    -4.8940    -2.4400 hc         1 CST       0.027867
     54 H151         4.0510    -2.6090    -2.5280 hc         1 CST       0.027867
     55 H152         3.6110    -1.3190    -1.3890 hc         1 CST       0.027867
     56 H153         4.3050    -2.8290    -0.7850 hc         1 CST       0.027867
     57 H17         -0.8520    -1.0070     1.3940 h1         1 CST       0.097700
     58 H18         -1.2120     1.7810     0.2740 h1         1 CST       0.075700
     59 H191        -2.8200     0.5920     2.6010 hc         1 CST       0.072700
     60 H192        -1.8860     2.0920     2.6240 hc         1 CST       0.072700
     61 H201        -4.3870     2.4600     2.2750 h1         1 CST       0.031700
     62 H202        -3.3700     3.1370     0.9830 h1         1 CST       0.031700
     63 H23          0.2920    -0.7700     6.2250 h1         1 CST       0.071700
     64 H251         3.3150    -0.5540     5.8280 hc         1 CST       0.049700
     65 H252         2.4700    -1.6370     6.9120 hc         1 CST       0.049700
     66 H27          3.6250    -1.0990     3.4710 ha         1 CST       0.107500
     67 H28          3.4870    -2.7870     1.6550 ha         1 CST       0.098500
     68 H29          2.1160    -4.8460     1.9600 ha         1 CST       0.097000
     69 H30          0.8820    -5.2120     4.0960 ha         1 CST       0.098500
     70 H31          1.0130    -3.5250     5.9190 ha         1 CST       0.107500
     71 HN1          1.8270    -0.0940    -4.5450 hn         1 CST       0.330500
     72 HN2         -0.9200    -0.7250    -1.1660 hn         1 CST       0.352500
     73 HN41        -4.2190    -0.8950    -1.4520 hn         1 CST       0.453000
     74 HN42        -5.3780    -0.2980    -0.3890 hn         1 CST       0.453000
     75 HN5         -5.1990     1.7470     0.0060 hn         1 CST       0.466000
     76 HN6          1.0000     1.1150     2.3380 hn         1 CST       0.290500
     77 HN7          1.5540     1.1420     4.2990 hn         1 CST       0.276500
     78 C10          0.0570    -0.4790    -3.5840 c          1 CST       0.574100
     79 C16          0.6040    -0.1950     0.0660 c          1 CST       0.567100
     80 O2          -1.1680    -0.4980    -3.6220 o          1 CST      -0.645100
     81 C22          0.0710    -0.1120     3.6730 c          1 CST       0.655100
     82 O3           1.7940     0.0680     0.1990 o          1 CST      -0.601100
     83 O5           0.5780     0.9200     7.9790 o          1 CST      -0.731500
     84 O6           2.1560     1.8200     6.8250 o          1 CST      -0.731500
@<TRIPOS>BOND
     1     1     2 ar  
     2     1     6 ar  
     3     1    39 1   
     4     2     3 ar  
     5     2    40 1   
     6     3     4 ar  
     7     3    41 1   
     8     4     5 ar  
     9     4     7 1   
    10     5     6 ar  
    11     5    42 1   
    12     6    43 1   
    13     7     8 1   
    14     7    44 1   
    15     7    45 1   
    16     8     9 1   
    17     8    29 1   
    18     8    46 1   
    19     9    36 1   
    20     9    38 1   
    21    10    11 1   
    22    10    30 1   
    23    10    47 1   
    24    10    78 1   
    25    11    12 1   
    26    11    48 1   
    27    11    49 1   
    28    12    13 1   
    29    12    14 1   
    30    12    50 1   
    31    13    51 1   
    32    13    52 1   
    33    13    53 1   
    34    14    54 1   
    35    14    55 1   
    36    14    56 1   
    37    15    16 1   
    38    15    34 1   
    39    15    57 1   
    40    15    79 1   
    41    16    17 1   
    42    16    31 1   
    43    16    58 1   
    44    17    18 1   
    45    17    59 1   
    46    17    60 1   
    47    18    33 1   
    48    18    61 1   
    49    18    62 1   
    50    19    31 2   
    51    19    32 1   
    52    19    33 1   
    53    20    21 1   
    54    20    22 1   
    55    20    35 1   
    56    20    63 1   
    57    21    83 1   
    58    21    84 1   
    59    22    23 1   
    60    22    64 1   
    61    22    65 1   
    62    23    24 ar  
    63    23    28 ar  
    64    24    25 ar  
    65    24    66 1   
    66    25    26 ar  
    67    25    67 1   
    68    26    27 ar  
    69    26    68 1   
    70    27    28 ar  
    71    27    69 1   
    72    28    70 1   
    73    29    71 1   
    74    29    78 1   
    75    30    72 1   
    76    30    79 1   
    77    32    73 1   
    78    32    74 1   
    79    33    75 1   
    80    34    76 1   
    81    34    81 1   
    82    35    77 1   
    83    35    81 1   
    84    37    81 2   
    85    78    80 2   
    86    79    82 2   
@<TRIPOS>SUBSTRUCTURE
     1 CST         1 TEMP              0 ****  ****    0 ROOT
