@<TRIPOS>MOLECULE
CST
   84    86     1     0     0
SMALL
bcc


@<TRIPOS>ATOM
      1 C1           0.6920     2.9830     0.0050 ca         1 CST      -0.166000
      2 C2           1.6080     1.9480     0.1140 ca         1 CST      -0.133500
      3 C3           2.2570     1.4700    -1.0180 ca         1 CST      -0.116000
      4 C4           2.0080     2.0160    -2.2710 ca         1 CST      -0.057300
      5 C5           1.0810     3.0540    -2.3690 ca         1 CST      -0.116000
      6 C6           0.4280     3.5350    -1.2450 ca         1 CST      -0.133500
      7 C7           2.6960     1.4800    -3.4930 c3         1 CST      -0.036100
      8 C8           1.8470     0.4560    -4.2740 c3         1 CST      -0.033300
      9 C9           2.6790    -0.0740    -5.4670 c          1 CST       0.924600
     10 C11         -0.0750    -2.0670    -2.1770 c3         1 CST       0.029700
     11 C12         -0.8050    -2.9700    -3.1720 c3         1 CST      -0.078400
     12 C13         -1.1830    -4.3510    -2.6330 c3         1 CST      -0.056700
     13 C14         -1.9040    -5.1410    -3.7210 c3         1 CST      -0.087100
     14 C15          0.0290    -5.1150    -2.1140 c3         1 CST      -0.087100
     15 C17         -1.4120    -0.7520     1.1090 c3         1 CST       0.042700
     16 C18         -2.5850     0.0020     0.4410 c6         1 CST       0.146500
     17 C19         -3.4440     0.7230     1.4760 c6         1 CST      -0.105400
     18 C20         -4.6870     1.2790     0.8080 c6         1 CST       0.220800
     19 C21         -4.6140    -0.7600    -0.5040 c2         1 CST       0.813100
     20 C23          1.4540     0.2340     4.9150 c3         1 CST      -0.036300
     21 C24          0.4480     0.2390     6.0960 c          1 CST       0.920600
     22 C25          2.5790     1.2440     5.1800 c3         1 CST      -0.034100
     23 C26          3.6520     1.2120     4.1300 ca         1 CST      -0.044300
     24 C27          3.6890     2.1540     3.1060 ca         1 CST      -0.129500
     25 C28          4.6590     2.0950     2.1130 ca         1 CST      -0.131500
     26 C29          5.6160     1.0910     2.1330 ca         1 CST      -0.148000
     27 C30          5.5970     0.1490     3.1550 ca         1 CST      -0.131500
     28 C31          4.6230     0.2110     4.1420 ca         1 CST      -0.129500
     29 N1           1.4170    -0.6330    -3.4350 ns         1 CST      -0.525900
     30 N2          -0.8890    -1.8590    -1.0100 ns         1 CST      -0.555900
     31 N3          -3.3520    -0.9440    -0.3450 n2         1 CST      -0.752900
     32 N4          -5.3160    -1.5930    -1.3420 nv         1 CST      -0.910800
     33 N5          -5.3490     0.2190     0.0820 nu         1 CST      -0.897200
     34 N6          -0.7550     0.1130     2.0470 ns         1 CST      -0.556900
     35 N7           0.8470     0.5160     3.6380 ns         1 CST      -0.523900
     36 O1           2.9120     0.7530    -6.3670 o          1 CST      -0.836300
     37 O4          -0.0590    -1.5580     3.4250 o          1 CST      -0.644100
     38 O9           3.0690    -1.2560    -5.4080 o          1 CST      -0.836300
     39 H1           0.1950     3.3730     0.8850 ha         1 CST       0.108000
     40 H2           1.8350     1.5080     1.0770 ha         1 CST       0.125000
     41 H3           2.9700     0.6610    -0.9190 ha         1 CST       0.130000
     42 H5           0.8720     3.4910    -3.3390 ha         1 CST       0.130000
     43 H6          -0.2830     4.3460    -1.3390 ha         1 CST       0.125000
     44 H71          3.6370     1.0040    -3.2030 hc         1 CST       0.049700
     45 H72          2.9450     2.2960    -4.1730 hc         1 CST       0.049700
     46 H8           0.9590     0.9660    -4.6540 h1         1 CST       0.060700
     47 H11          0.8640    -2.5400    -1.8800 h1         1 CST       0.079700
     48 H121        -0.1680    -3.0950    -4.0540 hc         1 CST       0.052700
     49 H122        -1.7100    -2.4570    -3.5170 hc         1 CST       0.052700
     50 H13         -1.8820    -4.2150    -1.8000 hc         1 CST       0.049700
     51 H141        -2.2120    -6.1230    -3.3590 hc         1 CST       0.027867
     52 H142        -2.7980    -4.6180    -4.0640 hc         1 CST       0.027867
     53 H143        -1.2570    -5.2940    -4.5890 hc         1 CST       0.027867
     54 H151         0.7980    -5.2060    -2.8860 hc         1 CST       0.027867
     55 H152         0.4820    -4.6270    -1.2500 hc         1 CST       0.027867
     56 H153        -0.2490    -6.1240    -1.8060 hc         1 CST       0.027867
     57 H17         -1.8340    -1.6010     1.6520 h1         1 CST       0.097700
     58 H18         -2.1410     0.7530    -0.2320 h1         1 CST       0.075700
     59 H191        -3.7290     0.0250     2.2690 hc         1 CST       0.072700
     60 H192        -2.8970     1.5380     1.9470 hc         1 CST       0.072700
     61 H201        -5.3750     1.6750     1.5560 h1         1 CST       0.031700
     62 H202        -4.4190     2.1090     0.1450 h1         1 CST       0.031700
     63 H23          1.9060    -0.7600     4.8640 h1         1 CST       0.071700
     64 H251         2.1520     2.2500     5.2450 hc         1 CST       0.049700
     65 H252         3.0000     1.0170     6.1590 hc         1 CST       0.049700
     66 H27          2.9500     2.9460     3.0790 ha         1 CST       0.125500
     67 H28          4.6610     2.8320     1.3200 ha         1 CST       0.116500
     68 H29          6.3730     1.0420     1.3610 ha         1 CST       0.115000
     69 H30          6.3430    -0.6350     3.1850 ha         1 CST       0.116500
     70 H31          4.6170    -0.5280     4.9350 ha         1 CST       0.125500
     71 HN1          2.0340    -1.4310    -3.4120 hn         1 CST       0.330500
     72 HN2         -1.9000    -1.7410    -1.1260 hn         1 CST       0.352500
     73 HN41        -4.8240    -2.4430    -1.5650 hn         1 CST       0.397800
     74 HN42        -6.2790    -1.7640    -1.0970 hn         1 CST       0.397800
     75 HN5         -6.2570     0.4190    -0.3050 hn         1 CST       0.410800
     76 HN6         -0.4500     0.9900     1.6500 hn         1 CST       0.290500
     77 HN7          0.6290     1.4880     3.4780 hn         1 CST       0.276500
     78 C10          0.2150    -0.7210    -2.8530 c          1 CST       0.641100
     79 C16         -0.3790    -1.2880     0.0930 c          1 CST       0.634100
     80 O2          -0.6350     0.1550    -2.8890 o          1 CST      -0.645100
     81 C22          0.0090    -0.3900     3.0640 c          1 CST       0.789100
     82 O3           0.8180    -1.1900     0.3080 o          1 CST      -0.601100
     83 O5           0.9090    -0.1590     7.1840 o          1 CST      -0.836800
     84 O6          -0.7040     0.6450     5.8680 o          1 CST      -0.836800
@<TRIPOS>BOND
     1     1     2 ar  
     2     1     6 ar  
     3     1    39 1   
     4     2     3 ar  
     5     2    40 1   
     6     3     4 ar  
     7     3    41 1   
     8     4     5 ar  
     9     4     7 1   
    10     5     6 ar  
    11     5    42 1   
    12     6    43 1   
    13     7     8 1   
    14     7    44 1   
    15     7    45 1   
    16     8     9 1   
    17     8    29 1   
    18     8    46 1   
    19     9    36 1   
    20     9    38 1   
    21    10    11 1   
    22    10    30 1   
    23    10    47 1   
    24    10    78 1   
    25    11    12 1   
    26    11    48 1   
    27    11    49 1   
    28    12    13 1   
    29    12    14 1   
    30    12    50 1   
    31    13    51 1   
    32    13    52 1   
    33    13    53 1   
    34    14    54 1   
    35    14    55 1   
    36    14    56 1   
    37    15    16 1   
    38    15    34 1   
    39    15    57 1   
    40    15    79 1   
    41    16    17 1   
    42    16    31 1   
    43    16    58 1   
    44    17    18 1   
    45    17    59 1   
    46    17    60 1   
    47    18    33 1   
    48    18    61 1   
    49    18    62 1   
    50    19    31 2   
    51    19    32 1   
    52    19    33 1   
    53    20    21 1   
    54    20    22 1   
    55    20    35 1   
    56    20    63 1   
    57    21    83 1   
    58    21    84 1   
    59    22    23 1   
    60    22    64 1   
    61    22    65 1   
    62    23    24 ar  
    63    23    28 ar  
    64    24    25 ar  
    65    24    66 1   
    66    25    26 ar  
    67    25    67 1   
    68    26    27 ar  
    69    26    68 1   
    70    27    28 ar  
    71    27    69 1   
    72    28    70 1   
    73    29    71 1   
    74    29    78 1   
    75    30    72 1   
    76    30    79 1   
    77    32    73 1   
    78    32    74 1   
    79    33    75 1   
    80    34    76 1   
    81    34    81 1   
    82    35    77 1   
    83    35    81 1   
    84    37    81 2   
    85    78    80 2   
    86    79    82 2   
@<TRIPOS>SUBSTRUCTURE
     1 CST         1 TEMP              0 ****  ****    0 ROOT
