@<TRIPOS>MOLECULE
CSV
   61    64     1     0     0
SMALL
abcg2


@<TRIPOS>ATOM
      1 O1          -5.9160     1.6090     0.2410 oh         1 CSV      -0.699000
      2 C2          -4.9450     1.9130    -0.7290 c3         1 CSV       0.149600
      3 C3          -3.6390     2.1920    -0.0120 c5         1 CSV       0.172300
      4 O4          -3.2190     1.0590     0.7500 os         1 CSV      -0.424000
      5 C5          -2.4970     2.4840    -0.9790 c5         1 CSV       0.166300
      6 O6          -1.5740     3.3400    -0.2950 os         1 CSV      -0.584400
      7 C7          -1.9290     1.0830    -1.1930 c5         1 CSV       0.084300
      8 O8          -0.6140     1.0210    -1.6470 oh         1 CSV      -0.740000
      9 C9          -2.0280     0.5360     0.2300 c5         1 CSV       0.335700
     10 N10         -1.9770    -0.8990     0.4040 n          1 CSV      -0.316000
     11 C11         -2.7620    -1.7860    -0.3640 c          1 CSV       0.727400
     12 N12         -2.5820    -3.1090    -0.1780 nc         1 CSV      -0.769100
     13 C13         -1.7970    -3.5690     0.7720 cd         1 CSV       0.786500
     14 C14         -1.0980    -2.6990     1.6650 cd         1 CSV      -0.487600
     15 C15         -1.2180    -1.3810     1.4230 cc         1 CSV       0.028600
     16 O16         -3.5600    -1.3410    -1.1740 o          1 CSV      -0.560000
     17 N17         -1.6650    -4.8880     0.9020 nv         1 CSV      -1.025200
     18 P18         -0.1430     3.7800    -0.8550 p5         1 CSV       1.169200
     19 O19          0.0720     3.7850    -2.3160 o          1 CSV      -0.514000
     20 S20          0.0510     5.7270    -0.1390 sh         1 CSV      -0.474200
     21 O21          0.8460     2.9210     0.0610 os         1 CSV      -0.581400
     22 C22          2.0540     2.3580    -0.4440 c3         1 CSV       0.222600
     23 C23          2.6760     1.5310     0.6530 c5         1 CSV       0.162300
     24 O24          1.7820     0.5100     1.0840 os         1 CSV      -0.442000
     25 C25          3.9210     0.7790     0.1950 c5         1 CSV       0.089300
     26 O26          5.0430     1.6110     0.2480 oh         1 CSV      -0.704000
     27 C27          3.9560    -0.3860     1.1900 c5         1 CSV       0.108300
     28 O28          4.4530     0.0320     2.4310 oh         1 CSV      -0.698000
     29 C29          2.4640    -0.6750     1.3680 c5         1 CSV       0.337700
     30 N30          1.9860    -1.7420     0.4670 n          1 CSV      -0.340000
     31 C31          2.2340    -3.0370     0.8730 c          1 CSV       0.612000
     32 N32          1.7160    -4.0070     0.0600 ns         1 CSV      -0.473500
     33 C33          0.9830    -3.8410    -1.1100 c          1 CSV       0.589200
     34 C34          0.7540    -2.4580    -1.4400 cc         1 CSV      -0.375200
     35 C35          1.2580    -1.4890    -0.6580 cd         1 CSV      -0.001400
     36 O36          2.8660    -3.2920     1.8780 o          1 CSV      -0.558000
     37 O37          0.6020    -4.8070    -1.7400 o          1 CSV      -0.516000
     38 HO1         -6.7380     1.4090    -0.2150 ho         1 CSV       0.510000
     39 H2          -4.8160     1.0930    -1.4450 h1         1 CSV       0.033200
     40 H2A         -5.2080     2.8120    -1.3020 h1         1 CSV       0.033200
     41 H3          -3.7870     3.0360     0.6700 h1         1 CSV       0.100700
     42 H5          -2.8250     2.9630    -1.9050 h1         1 CSV       0.084700
     43 H7          -2.6100     0.5540    -1.8610 h1         1 CSV       0.110700
     44 HO8         -0.5990     1.1780    -2.5960 ho         1 CSV       0.540000
     45 H9          -1.1630     0.9140     0.7900 h2         1 CSV       0.074700
     46 H14         -0.5010    -3.0670     2.4860 ha         1 CSV       0.208000
     47 H15         -0.7050    -0.6450     2.0270 h4         1 CSV       0.209000
     48 HN17        -2.0850    -5.5020     0.2250 hn         1 CSV       0.504000
     49 HN1A        -1.0290    -5.2880     1.5690 hn         1 CSV       0.504000
     50 HS20        -0.0600     5.4450     1.1670 hs         1 CSV       0.315800
     51 H22          1.8540     1.7480    -1.3270 h1         1 CSV       0.059200
     52 H22A         2.7600     3.1450    -0.7260 h1         1 CSV       0.059200
     53 H23          2.9220     2.1810     1.5020 h1         1 CSV       0.096700
     54 H25          3.7580     0.3820    -0.8180 h1         1 CSV       0.055700
     55 HO26         5.7380     1.2320    -0.2990 ho         1 CSV       0.523000
     56 H27          4.5030    -1.2510     0.7990 h1         1 CSV       0.078700
     57 HO28         5.2020     0.6180     2.2680 ho         1 CSV       0.527000
     58 H29          2.2470    -0.9980     2.3880 h2         1 CSV       0.123700
     59 H34          0.1740    -2.2050    -2.3140 ha         1 CSV       0.230000
     60 H35          1.0670    -0.4520    -0.8840 h4         1 CSV       0.228000
     61 HN32         1.9130    -4.9580     0.3450 hn         1 CSV       0.337500
@<TRIPOS>BOND
     1     1     2 1   
     2     1    38 1   
     3     2     3 1   
     4     2    39 1   
     5     2    40 1   
     6     3     4 1   
     7     3     5 1   
     8     3    41 1   
     9     4     9 1   
    10     5     6 1   
    11     5     7 1   
    12     5    42 1   
    13     6    18 1   
    14     7     8 1   
    15     7     9 1   
    16     7    43 1   
    17     8    44 1   
    18     9    10 1   
    19     9    45 1   
    20    10    11 1   
    21    10    15 1   
    22    11    12 1   
    23    11    16 2   
    24    12    13 2   
    25    13    14 1   
    26    13    17 1   
    27    14    15 2   
    28    14    46 1   
    29    15    47 1   
    30    17    48 1   
    31    17    49 1   
    32    18    19 2   
    33    18    20 1   
    34    18    21 1   
    35    20    50 1   
    36    21    22 1   
    37    22    23 1   
    38    22    51 1   
    39    22    52 1   
    40    23    24 1   
    41    23    25 1   
    42    23    53 1   
    43    24    29 1   
    44    25    26 1   
    45    25    27 1   
    46    25    54 1   
    47    26    55 1   
    48    27    28 1   
    49    27    29 1   
    50    27    56 1   
    51    28    57 1   
    52    29    30 1   
    53    29    58 1   
    54    30    31 1   
    55    30    35 1   
    56    31    32 1   
    57    31    36 2   
    58    32    33 1   
    59    32    61 1   
    60    33    34 1   
    61    33    37 2   
    62    34    35 2   
    63    34    59 1   
    64    35    60 1   
@<TRIPOS>SUBSTRUCTURE
     1 CSV         1 TEMP              0 ****  ****    0 ROOT
