@<TRIPOS>MOLECULE
CSV
   61    64     1     0     0
SMALL
No Charge or Current Charge


@<TRIPOS>ATOM
      1 O1          -6.1470     2.3250    -0.0150 oh         1 CSV      -0.699000
      2 C2          -4.9640     2.2710    -0.8360 c3         1 CSV       0.149600
      3 C3          -3.6690     2.2720     0.0280 c5         1 CSV       0.172300
      4 O4          -3.5260     0.9760     0.6850 os         1 CSV      -0.424000
      5 C5          -2.3560     2.4690    -0.8100 c5         1 CSV       0.166300
      6 O6          -1.4180     3.1370     0.0860 os         1 CSV      -0.584400
      7 C7          -1.9430     0.9860    -1.0930 c5         1 CSV       0.084300
      8 O8          -0.6010     0.8010    -1.5920 oh         1 CSV      -0.740000
      9 C9          -2.2330     0.4400     0.3390 c5         1 CSV       0.335700
     10 N10         -2.2030    -1.0480     0.3390 n          1 CSV      -0.316000
     11 C11         -3.2450    -1.7900    -0.2610 c          1 CSV       0.727400
     12 N12         -3.2300    -3.1540    -0.1320 nc         1 CSV      -0.769100
     13 C13         -2.2940    -3.7320     0.5400 cd         1 CSV       0.786500
     14 C14         -1.2340    -3.0590     1.1730 cd         1 CSV      -0.487600
     15 C15         -1.1970    -1.6910     1.0530 cc         1 CSV       0.028600
     16 O16         -4.1430    -1.2780    -0.9100 o          1 CSV      -0.560000
     17 N17         -2.3790    -5.0450     0.5990 nv         1 CSV      -1.025200
     18 P18         -0.2020     4.0050    -0.5330 p5         1 CSV       1.169200
     19 O19         -0.1490     4.1210    -2.0160 o          1 CSV      -0.514000
     20 S20         -0.4850     5.8060     0.4770 sh         1 CSV      -0.474200
     21 O21          1.1440     3.4760     0.1810 os         1 CSV      -0.581400
     22 C22          2.0380     2.5840    -0.5070 c3         1 CSV       0.222600
     23 C23          2.7120     1.6390     0.5180 c5         1 CSV       0.162300
     24 O24          1.8130     0.5830     0.9340 os         1 CSV      -0.442000
     25 C25          3.9290     0.8540    -0.0580 c5         1 CSV       0.089300
     26 O26          5.1140     1.6580    -0.2140 oh         1 CSV      -0.704000
     27 C27          4.1140    -0.2080     1.0610 c5         1 CSV       0.108300
     28 O28          4.8430     0.3880     2.1460 oh         1 CSV      -0.698000
     29 C29          2.6110    -0.5280     1.4190 c5         1 CSV       0.337700
     30 N30          2.2550    -1.7880     0.7050 n          1 CSV      -0.340000
     31 C31          2.4630    -3.0030     1.3870 c          1 CSV       0.612000
     32 N32          2.1250    -4.1360     0.7150 ns         1 CSV      -0.473500
     33 C33          1.5920    -4.2460    -0.5280 c          1 CSV       0.589200
     34 C34          1.3810    -2.9620    -1.1870 cc         1 CSV      -0.375200
     35 C35          1.7010    -1.7700    -0.5790 cd         1 CSV      -0.001400
     36 O36          2.9240    -3.0650     2.5130 o          1 CSV      -0.558000
     37 O37          1.3160    -5.3240    -1.0220 o          1 CSV      -0.516000
     38 HO1         -6.9230     2.2230    -0.6150 ho         1 CSV       0.510000
     39 H2          -4.9740     1.3740    -1.4690 h1         1 CSV       0.033200
     40 H2A         -4.9370     3.1440    -1.5030 h1         1 CSV       0.033200
     41 H3          -3.7620     3.0580     0.7890 h1         1 CSV       0.100700
     42 H5          -2.5230     3.0620    -1.7210 h1         1 CSV       0.084700
     43 H7          -2.6590     0.5440    -1.8000 h1         1 CSV       0.110700
     44 HO8         -0.6160     0.9770    -2.5630 ho         1 CSV       0.540000
     45 H9          -1.4760     0.7990     1.0490 h2         1 CSV       0.074700
     46 H14         -0.4860    -3.6020     1.7360 ha         1 CSV       0.208000
     47 H15         -0.4500    -1.0230     1.4770 h4         1 CSV       0.209000
     48 HN17        -3.0170    -5.4290    -0.0830 hn         1 CSV       0.504000
     49 HN1A        -1.5040    -5.5380     0.7040 hn         1 CSV       0.504000
     50 HS20        -0.4220     5.0220     1.5760 hs         1 CSV       0.315800
     51 H22          1.5310     1.9890    -1.2740 h1         1 CSV       0.059200
     52 H22A         2.8210     3.1660    -1.0100 h1         1 CSV       0.059200
     53 H23          3.0060     2.2280     1.3980 h1         1 CSV       0.096700
     54 H25          3.6580     0.3750    -1.0100 h1         1 CSV       0.055700
     55 HO26         5.5950     1.3350    -1.0160 ho         1 CSV       0.523000
     56 H27          4.6430    -1.0960     0.6860 h1         1 CSV       0.078700
     57 HO28         5.3610     1.1100     1.7050 ho         1 CSV       0.527000
     58 H29          2.4700    -0.6810     2.4970 h2         1 CSV       0.123700
     59 H34          0.9440    -3.0070    -2.1770 ha         1 CSV       0.230000
     60 H35          1.5400    -0.7880    -1.0200 h4         1 CSV       0.228000
     61 HN32         2.2890    -5.0010     1.2040 hn         1 CSV       0.337500
@<TRIPOS>BOND
     1     1     2 1   
     2     1    38 1   
     3     2     3 1   
     4     2    39 1   
     5     2    40 1   
     6     3     4 1   
     7     3     5 1   
     8     3    41 1   
     9     4     9 1   
    10     5     6 1   
    11     5     7 1   
    12     5    42 1   
    13     6    18 1   
    14     7     8 1   
    15     7     9 1   
    16     7    43 1   
    17     8    44 1   
    18     9    10 1   
    19     9    45 1   
    20    10    11 1   
    21    10    15 1   
    22    11    12 1   
    23    11    16 2   
    24    12    13 2   
    25    13    14 1   
    26    13    17 1   
    27    14    15 2   
    28    14    46 1   
    29    15    47 1   
    30    17    48 1   
    31    17    49 1   
    32    18    19 2   
    33    18    20 1   
    34    18    21 1   
    35    20    50 1   
    36    21    22 1   
    37    22    23 1   
    38    22    51 1   
    39    22    52 1   
    40    23    24 1   
    41    23    25 1   
    42    23    53 1   
    43    24    29 1   
    44    25    26 1   
    45    25    27 1   
    46    25    54 1   
    47    26    55 1   
    48    27    28 1   
    49    27    29 1   
    50    27    56 1   
    51    28    57 1   
    52    29    30 1   
    53    29    58 1   
    54    30    31 1   
    55    30    35 1   
    56    31    32 1   
    57    31    36 2   
    58    32    33 1   
    59    32    61 1   
    60    33    34 1   
    61    33    37 2   
    62    34    35 2   
    63    34    59 1   
    64    35    60 1   
@<TRIPOS>SUBSTRUCTURE
     1 CSV         1 TEMP              0 ****  ****    0 ROOT
