@<TRIPOS>MOLECULE
CSW
   15    14     1     0     0
SMALL
No Charge or Current Charge


@<TRIPOS>ATOM
      1 N            0.7790     1.8770     0.3030 n8         1 CSW      -0.914800
      2 CA           0.7470     0.3720     0.4890 c3         1 CSW       0.024500
      3 CB          -0.3650    -0.2960    -0.3670 c3         1 CSW       0.015900
      4 SG          -2.0820     0.1190     0.2080 s4         1 CSW       0.435700
      5 C            2.1150    -0.4010     0.2600 c          1 CSW       0.914600
      6 O            2.5870    -0.4410    -0.8720 o          1 CSW      -0.831300
      7 OD1         -2.7440    -1.1190    -0.7430 oh         1 CSW      -0.603800
      8 OD2         -2.4710     1.4470    -0.4010 o          1 CSW      -0.524200
      9 OXT          2.6900    -0.8800     1.2310 o          1 CSW      -0.831300
     10 H            1.4880     2.2810     0.9260 hn         1 CSW       0.343300
     11 H2           1.1280     2.0900    -0.6390 hn         1 CSW       0.343300
     12 HA           0.4810     0.1980     1.5410 h1         1 CSW       0.033700
     13 HB2         -0.2740    -0.0170    -1.4230 h1         1 CSW       0.091200
     14 HB3         -0.2580    -1.3850    -0.2840 h1         1 CSW       0.091200
     15 H7          -2.4920    -1.9550    -0.3000 ho         1 CSW       0.411000
@<TRIPOS>BOND
     1     1     2 1   
     2     1    10 1   
     3     1    11 1   
     4     2     3 1   
     5     2     5 1   
     6     2    12 1   
     7     3     4 1   
     8     3    13 1   
     9     3    14 1   
    10     4     7 1   
    11     4     8 2   
    12     5     6 1   
    13     5     9 1   
    14     7    15 1   
@<TRIPOS>SUBSTRUCTURE
     1 CSW         1 TEMP              0 ****  ****    0 ROOT
