@<TRIPOS>MOLECULE
CSW
   15    14     1     0     0
SMALL
bcc


@<TRIPOS>ATOM
      1 N            0.5810     1.6960     0.4140 n8         1 CSW      -0.914800
      2 CA           0.8600     0.2740     0.4500 c3         1 CSW       0.024500
      3 CB          -0.2090    -0.4630    -0.3480 c3         1 CSW       0.015900
      4 SG          -1.8310     0.1850     0.1510 s4         1 CSW       0.435700
      5 C            2.2650    -0.1800    -0.0270 c          1 CSW       0.914600
      6 O            3.0560     0.7040    -0.4010 o          1 CSW      -0.831300
      7 OD1         -2.6380    -1.2250    -0.1900 oh         1 CSW      -0.603800
      8 OD2         -2.2400     1.1800    -0.8750 o          1 CSW      -0.524200
      9 OXT          2.4730    -1.4100     0.0150 o          1 CSW      -0.831300
     10 H            1.2380     2.1770     1.0160 hn         1 CSW       0.343300
     11 H2           0.7650     2.0520    -0.5170 hn         1 CSW       0.343300
     12 HA           0.7600    -0.0450     1.4940 h1         1 CSW       0.033700
     13 HB2         -0.1250    -0.2830    -1.4240 h1         1 CSW       0.091200
     14 HB3         -0.1710    -1.5330    -0.1570 h1         1 CSW       0.091200
     15 H7          -3.4550    -1.2390     0.3280 ho         1 CSW       0.411000
@<TRIPOS>BOND
     1     1     2 1   
     2     1    10 1   
     3     1    11 1   
     4     2     3 1   
     5     2     5 1   
     6     2    12 1   
     7     3     4 1   
     8     3    13 1   
     9     3    14 1   
    10     4     7 1   
    11     4     8 2   
    12     5     6 1   
    13     5     9 1   
    14     7    15 1   
@<TRIPOS>SUBSTRUCTURE
     1 CSW         1 TEMP              0 ****  ****    0 ROOT
