@<TRIPOS>MOLECULE
CSX
   14    13     1     0     0
SMALL
No Charge or Current Charge


@<TRIPOS>ATOM
      1 N           41.3260    31.7270    57.7930 n8         1 CSX      -0.889800
      2 CA          41.9710    33.0320    57.3790 c3         1 CSX       0.043500
      3 CB          41.4360    33.4520    55.9830 c3         1 CSX       0.046900
      4 SG          42.3810    34.8820    55.2790 s4         1 CSX       0.093900
      5 C           41.9210    34.2250    58.4410 c          1 CSX       0.931600
      6 O           42.3730    34.0210    59.5640 o          1 CSX      -0.836300
      7 OXT         41.4390    35.3080    58.1210 o          1 CSX      -0.836300
      8 OD          41.7080    35.2770    53.9780 o          1 CSX      -0.571200
      9 H           41.7400    31.4200    58.6810 hn         1 CSX       0.331300
     10 H2          41.5770    30.9910    57.1240 hn         1 CSX       0.331300
     11 HA          43.0370    32.7990    57.2500 h1         1 CSX      -0.000300
     12 HB2         41.5280    32.6200    55.2750 h1         1 CSX       0.058700
     13 HB3         40.3800    33.7430    56.0530 h1         1 CSX       0.058700
     14 HG          41.9450    35.6730    56.3620 hs         1 CSX       0.238000
@<TRIPOS>BOND
     1     1     2 1   
     2     1     9 1   
     3     1    10 1   
     4     2     3 1   
     5     2     5 1   
     6     2    11 1   
     7     3     4 1   
     8     3    12 1   
     9     3    13 1   
    10     4     8 2   
    11     4    14 1   
    12     5     6 1   
    13     5     7 1   
@<TRIPOS>SUBSTRUCTURE
     1 CSX         1 TEMP              0 ****  ****    0 ROOT
