@<TRIPOS>MOLECULE
CSX
   14    13     1     0     0
SMALL
bcc


@<TRIPOS>ATOM
      1 N           41.4100    31.7650    57.7430 n8         1 CSX      -0.889800
      2 CA          42.0630    32.9970    57.3380 c3         1 CSX       0.043500
      3 CB          41.3740    33.5380    56.0930 c3         1 CSX       0.046900
      4 SG          42.1850    35.0280    55.4050 s4         1 CSX       0.093900
      5 C           42.0570    34.0430    58.4720 c          1 CSX       0.931600
      6 O           41.9690    33.6320    59.6400 o          1 CSX      -0.836300
      7 OXT         42.1870    35.2280    58.0950 o          1 CSX      -0.836300
      8 OD          41.8860    35.0260    53.9160 o          1 CSX      -0.571200
      9 H           41.6080    31.6170    58.7250 hn         1 CSX       0.331300
     10 H2          41.7990    30.9800    57.2390 hn         1 CSX       0.331300
     11 HA          43.1260    32.8430    57.0860 h1         1 CSX      -0.000300
     12 HB2         41.4490    32.8210    55.2730 h1         1 CSX       0.058700
     13 HB3         40.3170    33.7400    56.2740 h1         1 CSX       0.058700
     14 HG          41.3330    35.9130    55.9830 hs         1 CSX       0.238000
@<TRIPOS>BOND
     1     1     2 1   
     2     1     9 1   
     3     1    10 1   
     4     2     3 1   
     5     2     5 1   
     6     2    11 1   
     7     3     4 1   
     8     3    12 1   
     9     3    13 1   
    10     4     8 2   
    11     4    14 1   
    12     5     6 1   
    13     5     7 1   
@<TRIPOS>SUBSTRUCTURE
     1 CSX         1 TEMP              0 ****  ****    0 ROOT
