@<TRIPOS>MOLECULE
CSY
   36    37     1     0     0
SMALL
No Charge or Current Charge


@<TRIPOS>ATOM
      1 C1           1.3400    -0.4770     0.5740 cc         1 CSY       0.471900
      2 N2           0.0050    -0.4200     0.4390 nd         1 CSY      -0.675300
      3 CA2         -0.2240     0.9510     0.3460 cd         1 CSY       0.028400
      4 C2           1.0100     1.7560     0.4370 c          1 CSY       0.534200
      5 O2           1.1750     2.9700     0.3900 o          1 CSY      -0.521000
      6 N3           1.9550     0.7700     0.5900 n          1 CSY      -0.298300
      7 CA3          3.4100     1.0620     0.7180 c3         1 CSY      -0.063000
      8 C3           4.1910     0.9900    -0.6130 c          1 CSY       0.711000
      9 O3           4.1120    -0.0370    -1.2710 o          1 CSY      -0.715500
     10 OXT          4.8230     1.9740    -0.9670 o          1 CSY      -0.715500
     11 CA1          2.0880    -1.8090     0.7480 c3         1 CSY       0.144200
     12 N1           1.7450    -2.5250     2.0390 n8         1 CSY      -0.987200
     13 CB1          1.8700    -2.7150    -0.5040 c3         1 CSY       0.168600
     14 OG2          2.7050    -3.8910    -0.4640 oh         1 CSY      -0.652000
     15 CB2         -1.4890     1.4810     0.1810 ce         1 CSY      -0.101200
     16 CG          -2.8080     0.8210    -0.0700 ca         1 CSY      -0.075800
     17 CD1         -2.9100    -0.4150    -0.7440 ca         1 CSY      -0.052500
     18 CD2         -3.9870     1.4690     0.3510 ca         1 CSY      -0.052500
     19 CE1         -4.1700    -0.9960    -0.9750 ca         1 CSY      -0.189000
     20 CE2         -5.2450     0.8850     0.1200 ca         1 CSY      -0.189000
     21 CZ          -5.3340    -0.3490    -0.5410 ca         1 CSY       0.131100
     22 OH          -6.5490    -0.9190    -0.7700 oh         1 CSY      -0.539100
     23 HA31         3.5390     2.0670     1.1380 h1         1 CSY       0.049200
     24 HA32         3.8690     0.3580     1.4220 h1         1 CSY       0.049200
     25 HA1          3.1620    -1.5870     0.7710 h1         1 CSY       0.107700
     26 HN11         1.9220    -1.8970     2.8330 hn         1 CSY       0.394000
     27 HN12         0.7280    -2.6630     2.0700 hn         1 CSY       0.394000
     28 HB11         0.8110    -3.0020    -0.5590 h1         1 CSY       0.042700
     29 HB12         2.0950    -2.1280    -1.4050 h1         1 CSY       0.042700
     30 HOG          2.4740    -4.4330    -1.2490 ho         1 CSY       0.429000
     31 HB22        -1.5280     2.5710     0.1940 ha         1 CSY       0.182000
     32 HD1         -2.0190    -0.9230    -1.1040 ha         1 CSY       0.132000
     33 HD2         -3.9280     2.4270     0.8640 ha         1 CSY       0.132000
     34 HE1         -4.2390    -1.9480    -1.4950 ha         1 CSY       0.112500
     35 HE2         -6.1430     1.3970     0.4560 ha         1 CSY       0.112500
     36 HO          -7.2410    -0.3290    -0.4020 ho         1 CSY       0.457000
@<TRIPOS>BOND
     1     1     2 2   
     2     1     6 1   
     3     1    11 1   
     4     2     3 1   
     5     3     4 1   
     6     3    15 2   
     7     4     5 2   
     8     4     6 1   
     9     6     7 1   
    10     7     8 1   
    11     7    23 1   
    12     7    24 1   
    13     8     9 1   
    14     8    10 1   
    15    11    12 1   
    16    11    13 1   
    17    11    25 1   
    18    12    26 1   
    19    12    27 1   
    20    13    14 1   
    21    13    28 1   
    22    13    29 1   
    23    14    30 1   
    24    15    16 1   
    25    15    31 1   
    26    16    17 ar  
    27    16    18 ar  
    28    17    19 ar  
    29    17    32 1   
    30    18    20 ar  
    31    18    33 1   
    32    19    21 ar  
    33    19    34 1   
    34    20    21 ar  
    35    20    35 1   
    36    21    22 1   
    37    22    36 1   
@<TRIPOS>SUBSTRUCTURE
     1 CSY         1 TEMP              0 ****  ****    0 ROOT
