@<TRIPOS>MOLECULE
CSY
   36    37     1     0     0
SMALL
bcc


@<TRIPOS>ATOM
      1 C1           1.3730    -0.4720     0.5160 cc         1 CSY       0.471900
      2 N2           0.0970    -0.4440     0.3160 nd         1 CSY      -0.675300
      3 CA2         -0.2770     0.8900     0.3960 cd         1 CSY       0.028400
      4 C2           0.9300     1.7040     0.6630 c          1 CSY       0.676700
      5 O2           1.0640     2.9080     0.7680 o          1 CSY      -0.596500
      6 N3           1.9280     0.7610     0.7710 n          1 CSY      -0.365300
      7 CA3          3.3340     1.0690     0.8050 c3         1 CSY      -0.063000
      8 C3           4.0190     0.9150    -0.5730 c          1 CSY       0.921600
      9 O3           3.3120     0.5120    -1.5120 o          1 CSY      -0.820800
     10 OXT          5.2250     1.2160    -0.5890 o          1 CSY      -0.820800
     11 CA1          2.1430    -1.7620     0.5840 c3         1 CSY       0.144200
     12 N1           1.8250    -2.5170     1.7850 n8         1 CSY      -0.876800
     13 CB1          1.8510    -2.5750    -0.6700 c3         1 CSY       0.145400
     14 OG2          2.6570    -3.7280    -0.6590 oh         1 CSY      -0.589800
     15 CB2         -1.5080     1.4230     0.2640 ce         1 CSY      -0.051200
     16 CG          -2.7710     0.7650     0.0140 ca         1 CSY      -0.075800
     17 CD1         -2.9220    -0.6220    -0.1440 ca         1 CSY      -0.070500
     18 CD2         -3.9230     1.5570    -0.0760 ca         1 CSY      -0.070500
     19 CE1         -4.1600    -1.1820    -0.3790 ca         1 CSY      -0.207000
     20 CE2         -5.1690     1.0060    -0.3100 ca         1 CSY      -0.207000
     21 CZ          -5.2960    -0.3730    -0.4650 ca         1 CSY       0.131100
     22 OH          -6.4740    -0.9720    -0.6960 oh         1 CSY      -0.500100
     23 HA31         3.4410     2.0960     1.1560 h1         1 CSY       0.049200
     24 HA32         3.8360     0.4410     1.5450 h1         1 CSY       0.049200
     25 HA1          3.2140    -1.5510     0.6010 h1         1 CSY       0.107700
     26 HN11         2.1430    -2.0180     2.6060 hn         1 CSY       0.338800
     27 HN12         0.8190    -2.6050     1.8770 hn         1 CSY       0.338800
     28 HB11         0.7820    -2.8230    -0.6960 h1         1 CSY       0.042700
     29 HB12         2.0580    -1.9410    -1.5390 h1         1 CSY       0.042700
     30 HOG          2.5960    -4.1360    -1.5280 ho         1 CSY       0.390000
     31 HB22        -1.5580     2.5030     0.3630 ha         1 CSY       0.132000
     32 HD1         -2.0550    -1.2640    -0.0810 ha         1 CSY       0.150000
     33 HD2         -3.8390     2.6310     0.0410 ha         1 CSY       0.150000
     34 HE1         -4.2580    -2.2540    -0.4970 ha         1 CSY       0.130500
     35 HE2         -6.0400     1.6490    -0.3730 ha         1 CSY       0.130500
     36 HO          -7.1840    -0.3210    -0.7370 ho         1 CSY       0.418000
@<TRIPOS>BOND
     1     1     2 2   
     2     1     6 1   
     3     1    11 1   
     4     2     3 1   
     5     3     4 1   
     6     3    15 2   
     7     4     5 2   
     8     4     6 1   
     9     6     7 1   
    10     7     8 1   
    11     7    23 1   
    12     7    24 1   
    13     8     9 1   
    14     8    10 1   
    15    11    12 1   
    16    11    13 1   
    17    11    25 1   
    18    12    26 1   
    19    12    27 1   
    20    13    14 1   
    21    13    28 1   
    22    13    29 1   
    23    14    30 1   
    24    15    16 1   
    25    15    31 1   
    26    16    17 ar  
    27    16    18 ar  
    28    17    19 ar  
    29    17    32 1   
    30    18    20 ar  
    31    18    33 1   
    32    19    21 ar  
    33    19    34 1   
    34    20    21 ar  
    35    20    35 1   
    36    21    22 1   
    37    22    36 1   
@<TRIPOS>SUBSTRUCTURE
     1 CSY         1 TEMP              0 ****  ****    0 ROOT
