@<TRIPOS>MOLECULE
CSZ
   14    13     1     0     0
SMALL
No Charge or Current Charge


@<TRIPOS>ATOM
      1 N           38.0170    72.0270    43.9860 n8         1 CSZ      -0.876800
      2 CA          37.6670    72.1870    42.5220 c3         1 CSZ       0.019500
      3 C           37.4220    73.6540    41.9570 c          1 CSZ       0.936600
      4 O           37.6500    73.8620    40.7690 o          1 CSZ      -0.825800
      5 CB          36.4890    71.2570    42.1270 c3         1 CSZ       0.013700
      6 SG          34.8610    71.7890    42.8380 ss         1 CSZ      -0.144100
      7 SE          34.9310    71.1570    44.8380 sh         1 CSZ      -0.364800
      8 OXT         37.1250    74.5610    42.7320 o          1 CSZ      -0.825800
      9 H           38.1090    71.0310    44.2060 hn         1 CSZ       0.330300
     10 H2          37.2040    72.3260    44.5360 hn         1 CSZ       0.330300
     11 HA          38.5440    71.8200    41.9710 h1         1 CSZ       0.048700
     12 HB2         36.3930    71.2630    41.0340 h1         1 CSZ       0.063200
     13 HB3         36.6970    70.2240    42.4360 h1         1 CSZ       0.063200
     14 HE          34.3850    69.9200    44.7150 hs         1 CSZ       0.231800
@<TRIPOS>BOND
     1     1     2 1   
     2     1     9 1   
     3     1    10 1   
     4     2     3 1   
     5     2     5 1   
     6     2    11 1   
     7     3     4 1   
     8     3     8 1   
     9     5     6 1   
    10     5    12 1   
    11     5    13 1   
    12     6     7 1   
    13     7    14 1   
@<TRIPOS>SUBSTRUCTURE
     1 CSZ         1 TEMP              0 ****  ****    0 ROOT
