@<TRIPOS>MOLECULE
CSZ
   14    13     1     0     0
SMALL
bcc


@<TRIPOS>ATOM
      1 N           38.0770    72.1720    43.9370 n8         1 CSZ      -0.876800
      2 CA          37.7180    72.1720    42.5350 c3         1 CSZ       0.019500
      3 C           37.4630    73.6050    42.0040 c          1 CSZ       0.936600
      4 O           37.2140    73.6850    40.7840 o          1 CSZ      -0.825800
      5 CB          36.5370    71.2730    42.1670 c3         1 CSZ       0.013700
      6 SG          34.9460    71.8230    42.8750 ss         1 CSZ      -0.144100
      7 SE          34.8290    70.8560    44.8420 sh         1 CSZ      -0.364800
      8 OXT         37.5170    74.5430    42.8190 o          1 CSZ      -0.825800
      9 H           38.0170    71.2360    44.3170 hn         1 CSZ       0.330300
     10 H2          37.4290    72.7520    44.4530 hn         1 CSZ       0.330300
     11 HA          38.5680    71.7710    41.9650 h1         1 CSZ       0.048700
     12 HB2         36.3760    71.2910    41.0880 h1         1 CSZ       0.063200
     13 HB3         36.7050    70.2350    42.4560 h1         1 CSZ       0.063200
     14 HE          34.0970    69.6650    44.4250 hs         1 CSZ       0.231800
@<TRIPOS>BOND
     1     1     2 1   
     2     1     9 1   
     3     1    10 1   
     4     2     3 1   
     5     2     5 1   
     6     2    11 1   
     7     3     4 1   
     8     3     8 1   
     9     5     6 1   
    10     5    12 1   
    11     5    13 1   
    12     6     7 1   
    13     7    14 1   
@<TRIPOS>SUBSTRUCTURE
     1 CSZ         1 TEMP              0 ****  ****    0 ROOT
