@<TRIPOS>MOLECULE
CT0
   29    30     1     0     0
SMALL
bcc


@<TRIPOS>ATOM
      1 O           -0.3820     1.6770     0.1440 o          1 CT0      -0.525100
      2 C1          -0.3660     0.4810    -0.0340 c          1 CT0       0.590100
      3 N2          -1.4410    -0.3380    -0.1300 ns         1 CT0      -0.528400
      4 C3          -2.7650     0.0260    -0.0480 cc         1 CT0       0.570300
      5 N           -3.2170     1.2290     0.0510 nd         1 CT0      -0.658000
      6 S           -3.9790    -1.2160    -0.0780 ss         1 CT0      -0.218300
      7 C5          -5.1790     0.0090     0.0520 cc         1 CT0      -0.211400
      8 C4          -4.5830     1.2240     0.1100 cd         1 CT0       0.371200
      9 O2           0.9190    -1.5270    -0.3320 o          1 CT0      -0.610100
     10 C6           0.9440    -0.3140    -0.1780 c          1 CT0       0.587100
     11 N7           2.0260     0.4490    -0.1250 ns         1 CT0      -0.529900
     12 C8           3.3760    -0.0610    -0.2020 c5         1 CT0       0.099700
     13 C9           4.3590     0.9820    -0.7340 c5         1 CT0      -0.094900
     14 C10          3.9830    -0.4680     1.1410 c5         1 CT0      -0.094900
     15 C11          5.4690    -0.5900     0.8100 c5         1 CT0      -0.078400
     16 C12          5.7400     0.4970    -0.2560 c5         1 CT0      -0.078400
     17 HN2         -1.2200    -1.3180    -0.2610 hn         1 CT0       0.363500
     18 H5          -6.2290    -0.2310     0.0770 h4         1 CT0       0.182000
     19 H4          -5.1130     2.1620     0.1960 h4         1 CT0       0.046100
     20 HN7          1.8950     1.4370     0.0450 hn         1 CT0       0.342500
     21 H8           3.3700    -0.9290    -0.8660 h1         1 CT0       0.079700
     22 H91          4.2950     1.0970    -1.8150 hc         1 CT0       0.052200
     23 H92          4.1250     1.9550    -0.2910 hc         1 CT0       0.052200
     24 H101         3.8100     0.3280     1.8720 hc         1 CT0       0.052200
     25 H102         3.5490    -1.3870     1.5370 hc         1 CT0       0.052200
     26 H111         5.6730    -1.5800     0.3970 hc         1 CT0       0.046450
     27 H112         6.1030    -0.4800     1.6900 hc         1 CT0       0.046450
     28 H121         6.3250     0.0920    -1.0820 hc         1 CT0       0.046450
     29 H122         6.3160     1.3250     0.1580 hc         1 CT0       0.046450
@<TRIPOS>BOND
     1     1     2 2   
     2     2     3 1   
     3     2    10 1   
     4     3     4 1   
     5     3    17 1   
     6     4     5 2   
     7     4     6 1   
     8     5     8 1   
     9     6     7 1   
    10     7     8 2   
    11     7    18 1   
    12     8    19 1   
    13     9    10 2   
    14    10    11 1   
    15    11    12 1   
    16    11    20 1   
    17    12    13 1   
    18    12    14 1   
    19    12    21 1   
    20    13    16 1   
    21    13    22 1   
    22    13    23 1   
    23    14    15 1   
    24    14    24 1   
    25    14    25 1   
    26    15    16 1   
    27    15    26 1   
    28    15    27 1   
    29    16    28 1   
    30    16    29 1   
@<TRIPOS>SUBSTRUCTURE
     1 CT0         1 TEMP              0 ****  ****    0 ROOT
