@<TRIPOS>MOLECULE
CT0
   29    30     1     0     0
SMALL
No Charge or Current Charge


@<TRIPOS>ATOM
      1 O           -0.4370     1.7220     0.0130 o          1 CT0      -0.525100
      2 C1          -0.3850     0.5010    -0.1090 c          1 CT0       0.523100
      3 N2          -1.4920    -0.3330    -0.1290 ns         1 CT0      -0.461400
      4 C3          -2.8270    -0.0250    -0.0250 cc         1 CT0       0.570300
      5 N           -3.2770     1.2110     0.1200 nd         1 CT0      -0.658000
      6 S           -4.0460    -1.2740    -0.0800 ss         1 CT0      -0.073400
      7 C5          -5.2460    -0.0290     0.1080 cc         1 CT0      -0.273000
      8 C4          -4.6620     1.2120     0.1970 cd         1 CT0       0.305900
      9 O2           1.0670    -1.5060    -0.3880 o          1 CT0      -0.610100
     10 C6           1.0090    -0.2830    -0.2620 c          1 CT0       0.520100
     11 N7           2.1360     0.5310    -0.2420 ns         1 CT0      -0.462900
     12 C8           3.4570    -0.0950    -0.3560 c5         1 CT0       0.099700
     13 C9           4.4400     1.0580    -0.6540 c5         1 CT0      -0.094900
     14 C10          3.8940    -0.4550     1.0850 c5         1 CT0      -0.094900
     15 C11          5.4400    -0.5620     0.9210 c5         1 CT0      -0.078400
     16 C12          5.7890     0.3810    -0.2810 c5         1 CT0      -0.078400
     17 HN2         -1.2640    -1.3130    -0.2380 hn         1 CT0       0.363500
     18 H5          -6.2970    -0.2830     0.1410 h4         1 CT0       0.164000
     19 H4          -5.1920     2.1500     0.3180 h4         1 CT0       0.046100
     20 HN7          1.9840     1.5290    -0.1380 hn         1 CT0       0.342500
     21 H8           3.5260    -0.9300    -1.0700 h1         1 CT0       0.079700
     22 H91          4.4090     1.3810    -1.7010 hc         1 CT0       0.052200
     23 H92          4.2580     1.9410    -0.0290 hc         1 CT0       0.052200
     24 H101         3.6320     0.3300     1.8060 hc         1 CT0       0.052200
     25 H102         3.4450    -1.3880     1.4420 hc         1 CT0       0.052200
     26 H111         5.7440    -1.5930     0.7030 hc         1 CT0       0.046450
     27 H112         5.9600    -0.2670     1.8400 hc         1 CT0       0.046450
     28 H121         6.1820    -0.1990    -1.1240 hc         1 CT0       0.046450
     29 H122         6.5560     1.1190    -0.0190 hc         1 CT0       0.046450
@<TRIPOS>BOND
     1     1     2 2   
     2     2     3 1   
     3     2    10 1   
     4     3     4 1   
     5     3    17 1   
     6     4     5 2   
     7     4     6 1   
     8     5     8 1   
     9     6     7 1   
    10     7     8 2   
    11     7    18 1   
    12     8    19 1   
    13     9    10 2   
    14    10    11 1   
    15    11    12 1   
    16    11    20 1   
    17    12    13 1   
    18    12    14 1   
    19    12    21 1   
    20    13    16 1   
    21    13    22 1   
    22    13    23 1   
    23    14    15 1   
    24    14    24 1   
    25    14    25 1   
    26    15    16 1   
    27    15    26 1   
    28    15    27 1   
    29    16    28 1   
    30    16    29 1   
@<TRIPOS>SUBSTRUCTURE
     1 CT0         1 TEMP              0 ****  ****    0 ROOT
