@<TRIPOS>MOLECULE
CT1
   49    49     1     0     0
SMALL
abcg2


@<TRIPOS>ATOM
      1 C1          -3.5940     3.8920    -1.3370 c3         1 CT1      -0.089100
      2 C2          -4.0900     2.5130    -0.9240 c3         1 CT1      -0.076400
      3 C3          -3.0130     1.6890    -0.2300 c3         1 CT1      -0.077400
      4 C4          -3.5020     0.3040     0.1710 c3         1 CT1      -0.080400
      5 N8          -1.3000    -0.7600     0.1050 ns         1 CT1      -0.489900
      6 C9          -0.0920    -1.0390     0.6310 c          1 CT1       0.653100
      7 O10          0.1610    -1.0220     1.8170 o          1 CT1      -0.541000
      8 O11          0.7800    -1.3360    -0.3370 os         1 CT1      -0.465100
      9 C12          2.1750    -1.4330    -0.0300 c3         1 CT1       0.195300
     10 C13          2.8670    -0.1960    -0.6010 c3         1 CT1      -0.047100
     11 C14          2.3120     1.0730    -0.0140 ca         1 CT1      -0.084300
     12 C15          1.2640     1.7460    -0.6360 ca         1 CT1      -0.098500
     13 C16          0.7130     2.8870    -0.0680 ca         1 CT1      -0.110000
     14 C17          1.2070     3.3750     1.1340 ca         1 CT1      -0.108000
     15 C18          2.2560     2.7150     1.7620 ca         1 CT1      -0.110000
     16 C19          2.8000     1.5720     1.1920 ca         1 CT1      -0.098500
     17 C20          2.7060    -2.7580    -0.5750 c3         1 CT1      -0.063700
     18 C21          2.0710    -3.9360     0.1610 c3         1 CT1      -0.087600
     19 C22          2.5480    -2.9150    -2.0840 c3         1 CT1      -0.087600
     20 C6          -3.0630    -1.7740     1.4670 c          1 CT1       0.553900
     21 C5          -2.4450    -0.5050     0.9270 c3         1 CT1       0.006700
     22 H11         -2.7650     3.8160    -2.0430 hc         1 CT1       0.033367
     23 H12A        -4.3820     4.4760    -1.8130 hc         1 CT1       0.033367
     24 H13         -3.2380     4.4580    -0.4730 hc         1 CT1       0.033367
     25 H21         -4.9530     2.6160    -0.2590 hc         1 CT1       0.037700
     26 H22         -4.4470     1.9730    -1.8060 hc         1 CT1       0.037700
     27 H31         -2.1440     1.6030    -0.8880 hc         1 CT1       0.047200
     28 H32         -2.6630     2.2200     0.6630 hc         1 CT1       0.047200
     29 H41         -4.3820     0.3980     0.8130 hc         1 CT1       0.048700
     30 H42         -3.8250    -0.2540    -0.7140 hc         1 CT1       0.048700
     31 HN8         -1.4320    -0.8560    -0.8900 hn         1 CT1       0.329500
     32 H12          2.3070    -1.4380     1.0550 h1         1 CT1       0.075700
     33 H131         3.9340    -0.2820    -0.3830 hc         1 CT1       0.057200
     34 H132         2.7650    -0.1770    -1.6880 hc         1 CT1       0.057200
     35 H15          0.8730     1.3780    -1.5770 ha         1 CT1       0.111000
     36 H16         -0.1030     3.3950    -0.5660 ha         1 CT1       0.110000
     37 H17          0.7810     4.2670     1.5770 ha         1 CT1       0.110000
     38 H18          2.6510     3.0900     2.6970 ha         1 CT1       0.110000
     39 H19          3.6140     1.0600     1.6920 ha         1 CT1       0.111000
     40 H20          3.7770    -2.7560    -0.3440 hc         1 CT1       0.048700
     41 H211         2.5250    -4.8760    -0.1540 hc         1 CT1       0.038200
     42 H212         2.2010    -3.8490     1.2420 hc         1 CT1       0.038200
     43 H213         1.0010    -4.0050    -0.0420 hc         1 CT1       0.038200
     44 H221         3.0610    -2.1320    -2.6430 hc         1 CT1       0.038200
     45 H222         2.9710    -3.8680    -2.4060 hc         1 CT1       0.038200
     46 H223         1.4980    -2.9080    -2.3810 hc         1 CT1       0.038200
     47 H6          -3.9320    -1.6000     2.1280 h4         1 CT1      -0.012800
     48 H5          -2.1440     0.0830     1.8030 h1         1 CT1       0.095700
     49 O7          -2.6710    -2.8840     1.2240 o          1 CT1      -0.495100
@<TRIPOS>BOND
     1     1     2 1   
     2     1    22 1   
     3     1    23 1   
     4     1    24 1   
     5     2     3 1   
     6     2    25 1   
     7     2    26 1   
     8     3     4 1   
     9     3    27 1   
    10     3    28 1   
    11     4    21 1   
    12     4    29 1   
    13     4    30 1   
    14     5     6 1   
    15     5    21 1   
    16     5    31 1   
    17     6     7 2   
    18     6     8 1   
    19     8     9 1   
    20     9    10 1   
    21     9    17 1   
    22     9    32 1   
    23    10    11 1   
    24    10    33 1   
    25    10    34 1   
    26    11    12 ar  
    27    11    16 ar  
    28    12    13 ar  
    29    12    35 1   
    30    13    14 ar  
    31    13    36 1   
    32    14    15 ar  
    33    14    37 1   
    34    15    16 ar  
    35    15    38 1   
    36    16    39 1   
    37    17    18 1   
    38    17    19 1   
    39    17    40 1   
    40    18    41 1   
    41    18    42 1   
    42    18    43 1   
    43    19    44 1   
    44    19    45 1   
    45    19    46 1   
    46    20    21 1   
    47    20    47 1   
    48    20    49 2   
    49    21    48 1   
@<TRIPOS>SUBSTRUCTURE
     1 CT1         1 TEMP              0 ****  ****    0 ROOT
