@<TRIPOS>MOLECULE
CT1
   49    49     1     0     0
SMALL
No Charge or Current Charge


@<TRIPOS>ATOM
      1 C1          -2.8990     3.8090    -1.1320 c3         1 CT1      -0.089100
      2 C2          -3.6730     2.5120    -0.8320 c3         1 CT1      -0.076400
      3 C3          -2.8190     1.4440    -0.1130 c3         1 CT1      -0.077400
      4 C4          -3.6060     0.1390     0.1560 c3         1 CT1      -0.080400
      5 N8          -1.5720    -1.3350     0.2410 ns         1 CT1      -0.489900
      6 C9          -0.3110    -0.9470     0.5980 c          1 CT1       0.653100
      7 O10         -0.0360    -0.2950     1.5920 o          1 CT1      -0.541000
      8 O11          0.5720    -1.5460    -0.2480 os         1 CT1      -0.465100
      9 C12          1.9870    -1.3120    -0.0780 c3         1 CT1       0.195300
     10 C13          2.3830    -0.0340    -0.8720 c3         1 CT1      -0.047100
     11 C14          2.0380     1.2730    -0.1650 ca         1 CT1      -0.084300
     12 C15          1.0550     2.1350    -0.6900 ca         1 CT1      -0.098500
     13 C16          0.7560     3.3460    -0.0400 ca         1 CT1      -0.110000
     14 C17          1.4330     3.7010     1.1370 ca         1 CT1      -0.108000
     15 C18          2.4160     2.8470     1.6640 ca         1 CT1      -0.110000
     16 C19          2.7200     1.6390     1.0130 ca         1 CT1      -0.098500
     17 C20          2.7320    -2.5970    -0.5540 c3         1 CT1      -0.063700
     18 C21          2.4220    -3.8070     0.3620 c3         1 CT1      -0.087600
     19 C22          2.4840    -2.9550    -2.0430 c3         1 CT1      -0.087600
     20 C6          -3.7060    -2.1780     1.2350 c          1 CT1       0.553900
     21 C5          -2.8180    -0.9410     0.9400 c3         1 CT1       0.006700
     22 H11         -2.0480     3.6070    -1.7940 hc         1 CT1       0.033367
     23 H12A        -3.5520     4.5370    -1.6290 hc         1 CT1       0.033367
     24 H13         -2.5240     4.2610    -0.2060 hc         1 CT1       0.033367
     25 H21         -4.5460     2.7550    -0.2140 hc         1 CT1       0.037700
     26 H22         -4.0530     2.1000    -1.7740 hc         1 CT1       0.037700
     27 H31         -1.9380     1.2210    -0.7270 hc         1 CT1       0.047200
     28 H32         -2.4530     1.8510     0.8380 hc         1 CT1       0.047200
     29 H41         -4.5160     0.3870     0.7190 hc         1 CT1       0.048700
     30 H42         -3.9350    -0.2830    -0.8020 hc         1 CT1       0.048700
     31 HN8         -1.6300    -1.9420    -0.5660 hn         1 CT1       0.329500
     32 H12          2.2430    -1.1670     0.9810 h1         1 CT1       0.075700
     33 H131         3.4640    -0.0540    -1.0500 hc         1 CT1       0.057200
     34 H132         1.9170    -0.0670    -1.8640 hc         1 CT1       0.057200
     35 H15          0.5230     1.8700    -1.6010 ha         1 CT1       0.111000
     36 H16          0.0020     4.0120    -0.4520 ha         1 CT1       0.110000
     37 H17          1.2000     4.6380     1.6390 ha         1 CT1       0.110000
     38 H18          2.9440     3.1220     2.5740 ha         1 CT1       0.110000
     39 H19          3.4870     0.9870     1.4260 ha         1 CT1       0.111000
     40 H20          3.8060    -2.3980    -0.4500 hc         1 CT1       0.048700
     41 H211         3.0320    -4.6730     0.0790 hc         1 CT1       0.038200
     42 H212         2.6430    -3.5670     1.4090 hc         1 CT1       0.038200
     43 H213         1.3660    -4.0950     0.2920 hc         1 CT1       0.038200
     44 H221         2.8070    -2.1440    -2.7060 hc         1 CT1       0.038200
     45 H222         3.0480    -3.8530    -2.3210 hc         1 CT1       0.038200
     46 H223         1.4210    -3.1510    -2.2310 hc         1 CT1       0.038200
     47 H6          -4.5680    -1.9870     1.9110 h4         1 CT1      -0.012800
     48 H5          -2.5580    -0.5250     1.9220 h1         1 CT1       0.095700
     49 O7          -3.5040    -3.3000     0.7780 o          1 CT1      -0.495100
@<TRIPOS>BOND
     1     1     2 1   
     2     1    22 1   
     3     1    23 1   
     4     1    24 1   
     5     2     3 1   
     6     2    25 1   
     7     2    26 1   
     8     3     4 1   
     9     3    27 1   
    10     3    28 1   
    11     4    21 1   
    12     4    29 1   
    13     4    30 1   
    14     5     6 1   
    15     5    21 1   
    16     5    31 1   
    17     6     7 2   
    18     6     8 1   
    19     8     9 1   
    20     9    10 1   
    21     9    17 1   
    22     9    32 1   
    23    10    11 1   
    24    10    33 1   
    25    10    34 1   
    26    11    12 ar  
    27    11    16 ar  
    28    12    13 ar  
    29    12    35 1   
    30    13    14 ar  
    31    13    36 1   
    32    14    15 ar  
    33    14    37 1   
    34    15    16 ar  
    35    15    38 1   
    36    16    39 1   
    37    17    18 1   
    38    17    19 1   
    39    17    40 1   
    40    18    41 1   
    41    18    42 1   
    42    18    43 1   
    43    19    44 1   
    44    19    45 1   
    45    19    46 1   
    46    20    21 1   
    47    20    47 1   
    48    20    49 2   
    49    21    48 1   
@<TRIPOS>SUBSTRUCTURE
     1 CT1         1 TEMP              0 ****  ****    0 ROOT
