@<TRIPOS>MOLECULE
CT2
   50    51     1     0     0
SMALL
abcg2


@<TRIPOS>ATOM
      1 C1           3.7960    -3.7570    -0.4620 c3         1 CT2      -0.090100
      2 C2           4.1770    -2.3180    -0.7790 c3         1 CT2      -0.074400
      3 C3           3.2820    -1.3130    -0.0670 c3         1 CT2      -0.079400
      4 C4           3.6600     0.1340    -0.3580 c3         1 CT2      -0.080400
      5 C5           2.7010     1.1290     0.3030 c3         1 CT2       0.004700
      6 N8           1.3850     1.0240    -0.2520 ns         1 CT2      -0.490900
      7 C9           0.2660     1.2390     0.4670 c          1 CT2       0.657100
      8 O10          0.2520     1.4830     1.6580 o          1 CT2      -0.559000
      9 O11         -0.8070     1.1200    -0.3140 os         1 CT2      -0.460100
     10 C12         -2.1520     1.1480     0.2050 c5         1 CT2       0.219000
     11 C13         -2.4050    -0.0090     1.1790 c3         1 CT2      -0.049100
     12 C14         -1.9130    -1.3470     0.6960 ca         1 CT2      -0.071300
     13 C15         -2.6670    -2.1160    -0.1900 ca         1 CT2      -0.104500
     14 C16         -2.1990    -3.3380    -0.6550 ca         1 CT2      -0.113000
     15 C17         -0.9660    -3.8200    -0.2340 ca         1 CT2      -0.111000
     16 C18         -0.2120    -3.0730     0.6600 ca         1 CT2      -0.113000
     17 C19         -0.6840    -1.8510     1.1210 ca         1 CT2      -0.104500
     18 C20         -2.5040     2.5220     0.7780 c5         1 CT2      -0.090400
     19 C21         -2.5560     3.4490    -0.4390 c5         1 CT2      -0.075900
     20 C22         -2.9300     2.5400    -1.6310 c5         1 CT2      -0.075900
     21 C23         -3.0170     1.1190    -1.0560 c5         1 CT2      -0.090400
     22 C6           3.2530     2.5330     0.2130 c          1 CT2       0.553900
     23 O7           2.6600     3.4710    -0.2500 o          1 CT2      -0.496100
     24 H11          4.4410    -4.4680    -0.9790 hc         1 CT2       0.033700
     25 H12          3.8730    -3.9580     0.6080 hc         1 CT2       0.033700
     26 H13          2.7670    -3.9660    -0.7630 hc         1 CT2       0.033700
     27 H21          5.2210    -2.1450    -0.4990 hc         1 CT2       0.037200
     28 H22          4.1200    -2.1520    -1.8590 hc         1 CT2       0.037200
     29 H31          2.2420    -1.4870    -0.3580 hc         1 CT2       0.048700
     30 H32          3.3280    -1.4820     1.0150 hc         1 CT2       0.048700
     31 H41          4.6720     0.3300     0.0050 hc         1 CT2       0.048200
     32 H42          3.6800     0.3100    -1.4380 hc         1 CT2       0.048200
     33 H5           2.6600     0.8910     1.3730 h1         1 CT2       0.096700
     34 HN8          1.2990     0.8840    -1.2470 hn         1 CT2       0.330500
     35 H131        -1.9530     0.2230     2.1440 hc         1 CT2       0.065700
     36 H132        -3.4840    -0.0490     1.3450 hc         1 CT2       0.065700
     37 H15         -3.6370    -1.7620    -0.5170 ha         1 CT2       0.114500
     38 H16         -2.8020    -3.9160    -1.3440 ha         1 CT2       0.110500
     39 H17         -0.6020    -4.7730    -0.5950 ha         1 CT2       0.110000
     40 H18          0.7450    -3.4420     1.0060 ha         1 CT2       0.110500
     41 H19         -0.0890    -1.2860     1.8270 ha         1 CT2       0.114500
     42 H201        -3.4970     2.4380     1.2290 hc         1 CT2       0.058950
     43 H202        -1.8280     2.8600     1.5610 hc         1 CT2       0.058950
     44 H211        -3.2730     4.2570    -0.2930 hc         1 CT2       0.046450
     45 H212        -1.5850     3.9190    -0.6050 hc         1 CT2       0.046450
     46 H221        -3.8760     2.8330    -2.0890 hc         1 CT2       0.046450
     47 H222        -2.1730     2.5980    -2.4140 hc         1 CT2       0.046450
     48 H231        -2.7130     0.3480    -1.7660 hc         1 CT2       0.058950
     49 H232        -4.0420     0.8920    -0.7540 hc         1 CT2       0.058950
     50 H6           4.2730     2.6410     0.6240 h4         1 CT2      -0.011800
@<TRIPOS>BOND
     1     1     2 1   
     2     1    24 1   
     3     1    25 1   
     4     1    26 1   
     5     2     3 1   
     6     2    27 1   
     7     2    28 1   
     8     3     4 1   
     9     3    29 1   
    10     3    30 1   
    11     4     5 1   
    12     4    31 1   
    13     4    32 1   
    14     5     6 1   
    15     5    22 1   
    16     5    33 1   
    17     6     7 1   
    18     6    34 1   
    19     7     8 2   
    20     7     9 1   
    21     9    10 1   
    22    10    11 1   
    23    10    18 1   
    24    10    21 1   
    25    11    12 1   
    26    11    35 1   
    27    11    36 1   
    28    12    13 ar  
    29    12    17 ar  
    30    13    14 ar  
    31    13    37 1   
    32    14    15 ar  
    33    14    38 1   
    34    15    16 ar  
    35    15    39 1   
    36    16    17 ar  
    37    16    40 1   
    38    17    41 1   
    39    18    19 1   
    40    18    42 1   
    41    18    43 1   
    42    19    20 1   
    43    19    44 1   
    44    19    45 1   
    45    20    21 1   
    46    20    46 1   
    47    20    47 1   
    48    21    48 1   
    49    21    49 1   
    50    22    23 2   
    51    22    50 1   
@<TRIPOS>SUBSTRUCTURE
     1 CT2         1 TEMP              0 ****  ****    0 ROOT
