@<TRIPOS>MOLECULE
CT2
   50    51     1     0     0
SMALL
No Charge or Current Charge


@<TRIPOS>ATOM
      1 C1           3.4540    -3.7830    -0.4070 c3         1 CT2      -0.090100
      2 C2           4.0030    -2.3630    -0.6450 c3         1 CT2      -0.074400
      3 C3           3.0880    -1.2520    -0.0830 c3         1 CT2      -0.079400
      4 C4           3.6430     0.1680    -0.3480 c3         1 CT2      -0.080400
      5 C5           2.7800     1.3110     0.2420 c3         1 CT2       0.004700
      6 N8           1.3960     1.2720    -0.2830 ns         1 CT2      -0.490900
      7 C9           0.2640     1.2600     0.4810 c          1 CT2       0.657100
      8 O10          0.2510     1.3560     1.6980 o          1 CT2      -0.559000
      9 O11         -0.8060     1.1420    -0.3620 os         1 CT2      -0.460100
     10 C12         -2.1450     1.1050     0.2250 c5         1 CT2       0.219000
     11 C13         -2.3490    -0.1220     1.1690 c3         1 CT2      -0.049100
     12 C14         -1.7890    -1.4480     0.6560 ca         1 CT2      -0.071300
     13 C15         -2.4820    -2.1880    -0.3230 ca         1 CT2      -0.104500
     14 C16         -1.9670    -3.4110    -0.7870 ca         1 CT2      -0.113000
     15 C17         -0.7610    -3.9090    -0.2660 ca         1 CT2      -0.111000
     16 C18         -0.0730    -3.1840     0.7210 ca         1 CT2      -0.113000
     17 C19         -0.5840    -1.9590     1.1790 ca         1 CT2      -0.104500
     18 C20         -2.5170     2.4930     0.8390 c5         1 CT2      -0.090400
     19 C21         -2.4770     3.4460    -0.3890 c5         1 CT2      -0.075900
     20 C22         -2.9790     2.5650    -1.5770 c5         1 CT2      -0.075900
     21 C23         -3.1230     1.1260    -0.9870 c5         1 CT2      -0.090400
     22 C6           3.4350     2.6980     0.0040 c          1 CT2       0.553900
     23 O7           2.9390     3.5950    -0.6720 o          1 CT2      -0.496100
     24 H11          4.1420    -4.5310    -0.8200 hc         1 CT2       0.033700
     25 H12          3.3370    -3.9800     0.6650 hc         1 CT2       0.033700
     26 H13          2.4800    -3.9090    -0.8940 hc         1 CT2       0.033700
     27 H21          4.9950    -2.2840    -0.1840 hc         1 CT2       0.037200
     28 H22          4.1380    -2.2110    -1.7230 hc         1 CT2       0.037200
     29 H31          2.0930    -1.3490    -0.5360 hc         1 CT2       0.048700
     30 H32          2.9620    -1.3970     0.9970 hc         1 CT2       0.048700
     31 H41          4.6540     0.2360     0.0730 hc         1 CT2       0.048200
     32 H42          3.7440     0.3170    -1.4310 hc         1 CT2       0.048200
     33 H5           2.7520     1.1800     1.3320 h1         1 CT2       0.096700
     34 HN8          1.2460     1.2120    -1.2820 hn         1 CT2       0.330500
     35 H131        -1.9280     0.0990     2.1570 hc         1 CT2       0.065700
     36 H132        -3.4220    -0.2430     1.3620 hc         1 CT2       0.065700
     37 H15         -3.4230    -1.8180    -0.7250 ha         1 CT2       0.114500
     38 H16         -2.5050    -3.9750    -1.5450 ha         1 CT2       0.110500
     39 H17         -0.3640    -4.8570    -0.6220 ha         1 CT2       0.110000
     40 H18          0.8550    -3.5720     1.1330 ha         1 CT2       0.110500
     41 H19         -0.0420    -1.4080     1.9440 ha         1 CT2       0.114500
     42 H201        -3.5210     2.4670     1.2790 hc         1 CT2       0.058950
     43 H202        -1.8430     2.8190     1.6370 hc         1 CT2       0.058950
     44 H211        -3.1030     4.3330    -0.2370 hc         1 CT2       0.046450
     45 H212        -1.4580     3.8060    -0.5750 hc         1 CT2       0.046450
     46 H221        -3.9310     2.9270    -1.9820 hc         1 CT2       0.046450
     47 H222        -2.2580     2.5850    -2.4030 hc         1 CT2       0.046450
     48 H231        -2.8820     0.3580    -1.7310 hc         1 CT2       0.058950
     49 H232        -4.1550     0.9410    -0.6650 hc         1 CT2       0.058950
     50 H6           4.4190     2.8420     0.5020 h4         1 CT2      -0.011800
@<TRIPOS>BOND
     1     1     2 1   
     2     1    24 1   
     3     1    25 1   
     4     1    26 1   
     5     2     3 1   
     6     2    27 1   
     7     2    28 1   
     8     3     4 1   
     9     3    29 1   
    10     3    30 1   
    11     4     5 1   
    12     4    31 1   
    13     4    32 1   
    14     5     6 1   
    15     5    22 1   
    16     5    33 1   
    17     6     7 1   
    18     6    34 1   
    19     7     8 2   
    20     7     9 1   
    21     9    10 1   
    22    10    11 1   
    23    10    18 1   
    24    10    21 1   
    25    11    12 1   
    26    11    35 1   
    27    11    36 1   
    28    12    13 ar  
    29    12    17 ar  
    30    13    14 ar  
    31    13    37 1   
    32    14    15 ar  
    33    14    38 1   
    34    15    16 ar  
    35    15    39 1   
    36    16    17 ar  
    37    16    40 1   
    38    17    41 1   
    39    18    19 1   
    40    18    42 1   
    41    18    43 1   
    42    19    20 1   
    43    19    44 1   
    44    19    45 1   
    45    20    21 1   
    46    20    46 1   
    47    20    47 1   
    48    21    48 1   
    49    21    49 1   
    50    22    23 2   
    51    22    50 1   
@<TRIPOS>SUBSTRUCTURE
     1 CT2         1 TEMP              0 ****  ****    0 ROOT
