@<TRIPOS>MOLECULE
CT4
   23    23     1     0     0
SMALL
No Charge or Current Charge


@<TRIPOS>ATOM
      1 N           -0.9810     0.1170    -0.1940 nu         1 CT4      -0.889400
      2 C           -2.3030     0.2760    -0.2090 c2         1 CT4       0.904100
      3 N1          -2.6960     1.5550    -0.0360 nu         1 CT4      -0.907400
      4 N2          -3.0070    -0.7480    -0.0580 n2         1 CT4      -0.842100
      5 C1          -0.0910     0.8470    -1.0860 c3         1 CT4       0.303100
      6 C2           1.3030     0.3650    -0.8460 cc         1 CT4      -0.295300
      7 C3          -2.3290     2.3460     1.1520 c3         1 CT4       0.206100
      8 S            2.2040     0.8640     0.5610 ss         1 CT4       0.041600
      9 C4           3.5210    -0.1060    -0.0380 cc         1 CT4       0.506400
     10 N4           3.3290    -0.7410    -1.1870 nd         1 CT4      -0.622000
     11 C5           2.0500    -0.4660    -1.6520 cd         1 CT4       0.318900
     12 Cl           5.0080    -0.2060     0.8530 cl         1 CT4      -0.092000
     13 N5          -4.3510    -0.6640     0.0800 no         1 CT4       0.865400
     14 O1          -4.9570    -0.0070    -0.7730 o          1 CT4      -0.448000
     15 O2          -4.8590    -1.5620     0.7490 o          1 CT4      -0.448000
     16 HN          -0.7760    -0.8670    -0.0920 hn         1 CT4       0.518000
     17 HN1         -3.6420     1.6920    -0.3820 hn         1 CT4       0.551000
     18 H1          -0.3700     0.6740    -2.1360 h1         1 CT4       0.063200
     19 H1A         -0.1430     1.9280    -0.8960 h1         1 CT4       0.063200
     20 H3          -2.7770     3.3480     1.1000 h1         1 CT4       0.050700
     21 H3A         -2.6850     1.8540     2.0670 h1         1 CT4       0.050700
     22 H3B         -1.2400     2.4630     1.2240 h1         1 CT4       0.050700
     23 H5           1.7170    -0.9020    -2.5870 h4         1 CT4       0.052100
@<TRIPOS>BOND
     1     1     2 1   
     2     1     5 1   
     3     1    16 1   
     4     2     3 1   
     5     2     4 2   
     6     3     7 1   
     7     3    17 1   
     8     4    13 1   
     9     5     6 1   
    10     5    18 1   
    11     5    19 1   
    12     6     8 1   
    13     6    11 2   
    14     7    20 1   
    15     7    21 1   
    16     7    22 1   
    17     8     9 1   
    18     9    10 2   
    19     9    12 1   
    20    10    11 1   
    21    11    23 1   
    22    13    14 1   
    23    13    15 1   
@<TRIPOS>SUBSTRUCTURE
     1 CT4         1 TEMP              0 ****  ****    0 ROOT
