@<TRIPOS>MOLECULE
CT4
   23    23     1     0     0
SMALL
abcg2


@<TRIPOS>ATOM
      1 N           -0.9620     0.1810     0.2410 nu         1 CT4      -0.889400
      2 C           -2.2980     0.2400     0.0680 c2         1 CT4       0.904100
      3 N1          -2.9150     1.4040    -0.0490 nu         1 CT4      -0.907400
      4 N2          -2.8530    -0.9860     0.0640 n2         1 CT4      -0.842100
      5 C1           0.0030     1.0960    -0.3670 c3         1 CT4       0.303100
      6 C2           1.3250     0.4250    -0.4880 cc         1 CT4      -0.295300
      7 C3          -2.3980     2.6990     0.3500 c3         1 CT4       0.206100
      8 S            2.3310     0.0930     0.8760 ss         1 CT4       0.041600
      9 C4           3.4670    -0.6280    -0.1920 cc         1 CT4       0.506400
     10 N4           3.1520    -0.6280    -1.4360 nd         1 CT4      -0.622000
     11 C5           1.9350    -0.0340    -1.6110 cd         1 CT4       0.318900
     12 CL           4.9160    -1.2890     0.4130 cl         1 CT4      -0.092000
     13 N5          -4.1660    -1.1460     0.0180 no         1 CT4       0.865400
     14 O1          -4.9510    -0.2230    -0.2060 o          1 CT4      -0.448000
     15 O2          -4.5590    -2.2860     0.1790 o          1 CT4      -0.448000
     16 HN          -0.6410    -0.7700     0.3480 hn         1 CT4       0.518000
     17 HN1         -3.9060     1.3350    -0.2280 hn         1 CT4       0.551000
     18 H1          -0.3190     1.3880    -1.3700 h1         1 CT4       0.063200
     19 H1A          0.1060     2.0060     0.2230 h1         1 CT4       0.063200
     20 H3          -3.2510     3.3460     0.5320 h1         1 CT4       0.050700
     21 H3A         -1.8260     2.6270     1.2740 h1         1 CT4       0.050700
     22 H3B         -1.7840     3.1620    -0.4200 h1         1 CT4       0.050700
     23 H5           1.5190     0.0490    -2.6060 h4         1 CT4       0.052100
@<TRIPOS>BOND
     1     1     2 1   
     2     1     5 1   
     3     1    16 1   
     4     2     3 1   
     5     2     4 2   
     6     3     7 1   
     7     3    17 1   
     8     4    13 1   
     9     5     6 1   
    10     5    18 1   
    11     5    19 1   
    12     6     8 1   
    13     6    11 2   
    14     7    20 1   
    15     7    21 1   
    16     7    22 1   
    17     8     9 1   
    18     9    10 2   
    19     9    12 1   
    20    10    11 1   
    21    11    23 1   
    22    13    14 1   
    23    13    15 1   
@<TRIPOS>SUBSTRUCTURE
     1 CT4         1 TEMP              0 ****  ****    0 ROOT
