@<TRIPOS>MOLECULE
CT5
   46    49     1     0     0
SMALL
No Charge or Current Charge


@<TRIPOS>ATOM
      1 C15         -0.7730    -0.3360    -2.5950 ca         1 CT5      -0.103000
      2 C12          0.2540    -0.2010    -3.5430 ca         1 CT5       0.054100
      3 O17          0.1510    -0.8660    -4.7500 os         1 CT5      -0.329100
      4 O18          2.4160     0.7220    -4.1650 os         1 CT5      -0.328100
      5 C16          1.3830     0.6030    -3.2570 ca         1 CT5       0.057100
      6 C22          1.4530     1.2910    -2.0380 ca         1 CT5      -0.105000
      7 C20          0.4170     1.1590    -1.0960 ca         1 CT5      -0.096000
      8 C8          -0.7030     0.3350    -1.3550 ca         1 CT5      -0.007000
      9 C4          -1.7830     0.2230    -0.3570 cc         1 CT5      -0.163000
     10 C1          -3.1760     0.0340    -0.5330 cc         1 CT5       0.274300
     11 C7          -3.8780    -0.0080    -1.8630 c3         1 CT5      -0.123400
     12 N5          -3.8470    -0.0200     0.5970 nd         1 CT5      -0.516800
     13 C2          -1.5630     0.2330     1.0040 cd         1 CT5      -0.076000
     14 N3          -2.8480     0.1210     1.5550 na         1 CT5       0.005800
     15 C6          -0.3330     0.0960     1.8230 ca         1 CT5      -0.178000
     16 C10         -0.2920     0.7500     3.0720 ca         1 CT5      -0.027000
     17 C14          0.8370     0.6620     3.9090 ca         1 CT5      -0.148300
     18 C26          0.8380     1.4130     5.2410 c3         1 CT5      -0.012100
     19 C27          0.3380     0.5360     6.4040 c3         1 CT5      -0.085100
     20 C13          1.9360    -0.1220     3.5020 ca         1 CT5       0.192100
     21 C17          1.0440    -0.4600    -5.8110 c6         1 CT5       0.117600
     22 O25          3.0420    -0.2420     4.2910 oh         1 CT5      -0.527100
     23 C11          1.8910    -0.8130     2.2860 ca         1 CT5      -0.258000
     24 C18          2.4630    -0.2360    -5.2460 c6         1 CT5       0.116600
     25 C9           0.7690    -0.7120     1.4570 ca         1 CT5       0.221100
     26 O24          0.7220    -1.4920     0.3480 oh         1 CT5      -0.527100
     27 H15         -1.6070    -0.9890    -2.8290 ha         1 CT5       0.129000
     28 H22          2.3100     1.9230    -1.8200 ha         1 CT5       0.128000
     29 H20          0.4820     1.7170    -0.1660 ha         1 CT5       0.125000
     30 H7C1        -3.4060     0.6720    -2.5820 hc         1 CT5       0.050033
     31 H7C2        -3.8690    -1.0220    -2.2790 hc         1 CT5       0.050033
     32 H7C3        -4.9250     0.3000    -1.7640 hc         1 CT5       0.050033
     33 H3          -3.0650     0.0780     2.5490 hn         1 CT5       0.374000
     34 H10         -1.1360     1.3610     3.3870 ha         1 CT5       0.116000
     35 H261         0.2000     2.3040     5.1740 hc         1 CT5       0.046700
     36 H262         1.8420     1.7860     5.4780 hc         1 CT5       0.046700
     37 H271         0.3430     1.1040     7.3420 hc         1 CT5       0.034367
     38 H272        -0.6850     0.1900     6.2160 hc         1 CT5       0.034367
     39 H273         0.9830    -0.3420     6.5310 hc         1 CT5       0.034367
     40 H171         0.6720     0.4750    -6.2520 h1         1 CT5       0.065700
     41 H172         1.0540    -1.2320    -6.5940 h1         1 CT5       0.065700
     42 H25          3.6800    -0.8280     3.8340 ho         1 CT5       0.467000
     43 H11          2.7180    -1.4490     1.9840 ha         1 CT5       0.133000
     44 H181         3.1400     0.1320    -6.0300 h1         1 CT5       0.066200
     45 H182         2.8600    -1.1870    -4.8640 h1         1 CT5       0.066200
     46 H24         -0.0810    -1.2150    -0.1420 ho         1 CT5       0.487000
@<TRIPOS>BOND
     1     1     2 ar  
     2     1     8 ar  
     3     1    27 1   
     4     2     3 1   
     5     2     5 ar  
     6     3    21 1   
     7     4     5 1   
     8     4    24 1   
     9     5     6 ar  
    10     6     7 ar  
    11     6    28 1   
    12     7     8 ar  
    13     7    29 1   
    14     8     9 1   
    15     9    10 1   
    16     9    13 2   
    17    10    11 1   
    18    10    12 2   
    19    11    30 1   
    20    11    31 1   
    21    11    32 1   
    22    12    14 1   
    23    13    14 1   
    24    13    15 1   
    25    14    33 1   
    26    15    16 ar  
    27    15    25 ar  
    28    16    17 ar  
    29    16    34 1   
    30    17    18 1   
    31    17    20 ar  
    32    18    19 1   
    33    18    35 1   
    34    18    36 1   
    35    19    37 1   
    36    19    38 1   
    37    19    39 1   
    38    20    22 1   
    39    20    23 ar  
    40    21    24 1   
    41    21    40 1   
    42    21    41 1   
    43    22    42 1   
    44    23    25 ar  
    45    23    43 1   
    46    24    44 1   
    47    24    45 1   
    48    25    26 1   
    49    26    46 1   
@<TRIPOS>SUBSTRUCTURE
     1 CT5         1 TEMP              0 ****  ****    0 ROOT
