@<TRIPOS>MOLECULE
CT5
   46    49     1     0     0
SMALL
abcg2


@<TRIPOS>ATOM
      1 C15         -0.7000    -0.3680    -2.6020 ca         1 CT5      -0.103000
      2 C12          0.2970    -0.1700    -3.5460 ca         1 CT5       0.054100
      3 O17          0.2010    -0.8240    -4.7310 os         1 CT5      -0.329100
      4 O18          2.3770     0.8840    -4.1430 os         1 CT5      -0.328100
      5 C16          1.3680     0.6780    -3.2590 ca         1 CT5       0.057100
      6 C22          1.4070     1.3320    -2.0350 ca         1 CT5      -0.105000
      7 C20          0.4010     1.1460    -1.1060 ca         1 CT5      -0.096000
      8 C8          -0.6640     0.2810    -1.3710 ca         1 CT5      -0.007000
      9 C4          -1.7240     0.0670    -0.3810 cc         1 CT5      -0.163000
     10 C1          -3.1280     0.0580    -0.5850 cc         1 CT5       0.274300
     11 C7          -3.8710     0.2190    -1.8660 c3         1 CT5      -0.123400
     12 N5          -3.7680    -0.0860     0.5570 nd         1 CT5      -0.516800
     13 C2          -1.5700    -0.0920     0.9890 cd         1 CT5      -0.076000
     14 N3          -2.8220    -0.1750     1.4820 na         1 CT5       0.005800
     15 C6          -0.3900    -0.1620     1.8490 ca         1 CT5      -0.178000
     16 C10         -0.2740     0.6720     2.9630 ca         1 CT5      -0.027000
     17 C14          0.8030     0.6470     3.8290 ca         1 CT5      -0.148300
     18 C26          0.8660     1.5470     5.0310 c3         1 CT5      -0.012100
     19 C27          0.5290     0.8250     6.3350 c3         1 CT5      -0.085100
     20 C13          1.8240    -0.2690     3.5430 ca         1 CT5       0.192100
     21 C17          1.0460    -0.3150    -5.7400 c6         1 CT5       0.117600
     22 O25          2.8830    -0.2910     4.3760 oh         1 CT5      -0.527100
     23 C11          1.7420    -1.1130     2.4460 ca         1 CT5      -0.258000
     24 C18          2.4310    -0.0630    -5.1890 c6         1 CT5       0.116600
     25 C9           0.6410    -1.0730     1.5990 ca         1 CT5       0.221100
     26 O24          0.6300    -1.9450     0.5810 oh         1 CT5      -0.527100
     27 H15         -1.5010    -1.0560    -2.8420 ha         1 CT5       0.129000
     28 H22          2.2340     1.9970    -1.8220 ha         1 CT5       0.128000
     29 H20          0.4450     1.6760    -0.1650 ha         1 CT5       0.125000
     30 H7C1        -3.4180     0.9880    -2.4920 hc         1 CT5       0.050033
     31 H7C2        -3.8850    -0.7040    -2.4480 hc         1 CT5       0.050033
     32 H7C3        -4.9050     0.4970    -1.6710 hc         1 CT5       0.050033
     33 H3          -3.0780    -0.3500     2.4390 hn         1 CT5       0.374000
     34 H10         -1.0610     1.3960     3.1460 ha         1 CT5       0.116000
     35 H261         0.1640     2.3720     4.8860 hc         1 CT5       0.046700
     36 H262         1.8550     2.0040     5.1130 hc         1 CT5       0.046700
     37 H271         0.5620     1.5130     7.1810 hc         1 CT5       0.034367
     38 H272        -0.4710     0.3920     6.2950 hc         1 CT5       0.034367
     39 H273         1.2330     0.0190     6.5360 hc         1 CT5       0.034367
     40 H171         0.6310     0.6130    -6.1530 h1         1 CT5       0.065700
     41 H172         1.0790    -1.0570    -6.5380 h1         1 CT5       0.065700
     42 H25          3.5300    -0.9360     4.0770 ho         1 CT5       0.467000
     43 H11          2.5290    -1.8280     2.2340 ha         1 CT5       0.133000
     44 H181         3.0830     0.3460    -5.9610 h1         1 CT5       0.066200
     45 H182         2.8720    -1.0010    -4.8320 h1         1 CT5       0.066200
     46 H24         -0.1660    -1.8420     0.0460 ho         1 CT5       0.487000
@<TRIPOS>BOND
     1     1     2 ar  
     2     1     8 ar  
     3     1    27 1   
     4     2     3 1   
     5     2     5 ar  
     6     3    21 1   
     7     4     5 1   
     8     4    24 1   
     9     5     6 ar  
    10     6     7 ar  
    11     6    28 1   
    12     7     8 ar  
    13     7    29 1   
    14     8     9 1   
    15     9    10 1   
    16     9    13 2   
    17    10    11 1   
    18    10    12 2   
    19    11    30 1   
    20    11    31 1   
    21    11    32 1   
    22    12    14 1   
    23    13    14 1   
    24    13    15 1   
    25    14    33 1   
    26    15    16 ar  
    27    15    25 ar  
    28    16    17 ar  
    29    16    34 1   
    30    17    18 1   
    31    17    20 ar  
    32    18    19 1   
    33    18    35 1   
    34    18    36 1   
    35    19    37 1   
    36    19    38 1   
    37    19    39 1   
    38    20    22 1   
    39    20    23 ar  
    40    21    24 1   
    41    21    40 1   
    42    21    41 1   
    43    22    42 1   
    44    23    25 ar  
    45    23    43 1   
    46    24    44 1   
    47    24    45 1   
    48    25    26 1   
    49    26    46 1   
@<TRIPOS>SUBSTRUCTURE
     1 CT5         1 TEMP              0 ****  ****    0 ROOT
