@<TRIPOS>MOLECULE
CT6
   38    41     1     0     0
SMALL
No Charge or Current Charge


@<TRIPOS>ATOM
      1 Br1         10.8490    -6.1740     6.0350 br         1 CT6      -0.109100
      2 C1          12.1900    -6.4770     7.3650 ca         1 CT6      -0.018900
      3 C2          11.9400    -7.3820     8.4100 ca         1 CT6      -0.065000
      4 C3          12.9140    -7.6340     9.4140 ca         1 CT6      -0.152500
      5 C4          14.1570    -6.9520     9.2970 ca         1 CT6      -0.054000
      6 C5          14.3990    -6.0460     8.2500 ca         1 CT6      -0.119000
      7 C6          13.4150    -5.8040     7.2830 ca         1 CT6      -0.071000
      8 C7          12.6880    -8.6030    10.5220 cc         1 CT6       0.487500
      9 C8          11.3890    -9.1730    10.7550 cc         1 CT6      -0.325000
     10 C9          11.1560   -10.1080    11.7340 cd         1 CT6       0.405000
     11 N2          12.2500   -10.4830    12.5260 na         1 CT6       0.054900
     12 N3          12.2780   -11.3970    13.5760 nc         1 CT6      -0.624100
     13 C12         13.5700   -11.3260    13.9250 cd         1 CT6       0.408500
     14 C10         13.4370    -9.8630    12.2130 cd         1 CT6       0.433500
     15 C11         14.3270   -10.4120    13.1350 cd         1 CT6      -0.403600
     16 N1          13.7520    -8.9330    11.2480 nd         1 CT6      -0.695000
     17 N4           9.9290   -10.6780    11.9730 nu         1 CT6      -0.966200
     18 C13          8.7520   -10.6770    11.0850 c3         1 CT6       0.280100
     19 C14          9.0930   -11.2600     9.7140 ca         1 CT6      -0.084300
     20 C15          8.8960   -10.5180     8.5330 ca         1 CT6      -0.154500
     21 C16          9.2340   -11.0870     7.2930 ca         1 CT6       0.338400
     22 N5           9.7460   -12.3330     7.1680 nb         1 CT6      -0.654000
     23 C17          9.9340   -13.0510     8.3000 ca         1 CT6       0.338400
     24 C18          9.6230   -12.5580     9.5800 ca         1 CT6      -0.154500
     25 H2          10.9820    -7.8900     8.3990 ha         1 CT6       0.133000
     26 H4          14.9500    -7.1060    10.0260 ha         1 CT6       0.138000
     27 H5          15.3560    -5.5320     8.1900 ha         1 CT6       0.121000
     28 H6          13.6050    -5.1050     6.4710 ha         1 CT6       0.131000
     29 H8          10.5550    -8.8450    10.1600 ha         1 CT6       0.142000
     30 H12         13.9280   -11.9410    14.7420 h4         1 CT6       0.044800
     31 H11         15.3820   -10.1900    13.2290 ha         1 CT6       0.227000
     32 HA           9.9580   -11.3730    12.7240 hn         1 CT6       0.532000
     33 H131         7.9430   -11.2740    11.5300 h1         1 CT6       0.066700
     34 H132         8.3690    -9.6540    10.9670 h1         1 CT6       0.066700
     35 H15          8.4880    -9.5110     8.5670 ha         1 CT6       0.126500
     36 H16          9.0910   -10.5260     6.3700 h4         1 CT6       0.025100
     37 H17         10.3470   -14.0510     8.1780 h4         1 CT6       0.025100
     38 H18          9.7990   -13.1810    10.4520 ha         1 CT6       0.126500
@<TRIPOS>BOND
     1     1     2 1   
     2     2     3 ar  
     3     2     7 ar  
     4     3     4 ar  
     5     3    25 1   
     6     4     5 ar  
     7     4     8 1   
     8     5     6 ar  
     9     5    26 1   
    10     6     7 ar  
    11     6    27 1   
    12     7    28 1   
    13     8     9 1   
    14     8    16 2   
    15     9    10 2   
    16     9    29 1   
    17    10    11 1   
    18    10    17 1   
    19    11    12 1   
    20    11    14 1   
    21    12    13 2   
    22    13    15 1   
    23    13    30 1   
    24    14    15 2   
    25    14    16 1   
    26    15    31 1   
    27    17    18 1   
    28    17    32 1   
    29    18    19 1   
    30    18    33 1   
    31    18    34 1   
    32    19    20 ar  
    33    19    24 ar  
    34    20    21 ar  
    35    20    35 1   
    36    21    22 ar  
    37    21    36 1   
    38    22    23 ar  
    39    23    24 ar  
    40    23    37 1   
    41    24    38 1   
@<TRIPOS>SUBSTRUCTURE
     1 CT6         1 TEMP              0 ****  ****    0 ROOT
