@<TRIPOS>MOLECULE
CT6
   38    41     1     0     0
SMALL
abcg2


@<TRIPOS>ATOM
      1 BR1         11.5440    -7.2780     5.5140 br         1 CT6      -0.109100
      2 C1          12.5280    -7.0620     7.1450 ca         1 CT6      -0.018900
      3 C2          12.2710    -7.9260     8.1970 ca         1 CT6      -0.065000
      4 C3          12.9950    -7.7950     9.3860 ca         1 CT6      -0.152500
      5 C4          13.9640    -6.7930     9.4870 ca         1 CT6      -0.054000
      6 C5          14.1960    -5.9310     8.4240 ca         1 CT6      -0.119000
      7 C6          13.4790    -6.0560     7.2370 ca         1 CT6      -0.071000
      8 C7          12.7470    -8.7220    10.5170 cc         1 CT6       0.487500
      9 C8          11.4640    -9.2740    10.6880 cc         1 CT6      -0.325000
     10 C9          11.2390   -10.1920    11.7020 cd         1 CT6       0.405000
     11 N2          12.3120   -10.4720    12.4990 na         1 CT6       0.054900
     12 N3          12.2940   -11.3360    13.5430 nc         1 CT6      -0.624100
     13 C12         13.5410   -11.2720    14.0290 cd         1 CT6       0.408500
     14 C10         13.5530    -9.8650    12.3120 cd         1 CT6       0.433500
     15 C11         14.3630   -10.3900    13.3200 cd         1 CT6      -0.403600
     16 N1          13.7760    -8.9970    11.3130 nd         1 CT6      -0.695000
     17 N4          10.0910   -10.8280    11.9640 nu         1 CT6      -0.966200
     18 C13          8.8980   -10.6640    11.1570 c3         1 CT6       0.280100
     19 C14          9.0630   -11.1050     9.7180 ca         1 CT6      -0.084300
     20 C15          8.3610   -10.4610     8.7040 ca         1 CT6      -0.154500
     21 C16          8.5360   -10.8760     7.3900 ca         1 CT6       0.338400
     22 N5           9.3540   -11.8710     7.0340 nb         1 CT6      -0.654000
     23 C17         10.0220   -12.4890     8.0140 ca         1 CT6       0.338400
     24 C18          9.9100   -12.1470     9.3550 ca         1 CT6      -0.154500
     25 H2          11.5340    -8.7090     8.0840 ha         1 CT6       0.133000
     26 H4          14.5240    -6.6910    10.4050 ha         1 CT6       0.138000
     27 H5          14.9390    -5.1490     8.5140 ha         1 CT6       0.121000
     28 H6          13.6610    -5.3890     6.4070 ha         1 CT6       0.131000
     29 H8          10.6550    -8.9910    10.0390 ha         1 CT6       0.142000
     30 H12         13.8010   -11.8760    14.8840 h4         1 CT6       0.044800
     31 H11         15.3980   -10.1570    13.4970 ha         1 CT6       0.227000
     32 HA          10.0940   -11.4890    12.7250 hn         1 CT6       0.532000
     33 H131         8.1130   -11.2530    11.6320 h1         1 CT6       0.066700
     34 H132         8.5720    -9.6210    11.1760 h1         1 CT6       0.066700
     35 H15          7.6990    -9.6340     8.9270 ha         1 CT6       0.126500
     36 H16          8.0030   -10.3770     6.5880 h4         1 CT6       0.025100
     37 H17         10.6830   -13.2940     7.7140 h4         1 CT6       0.025100
     38 H18         10.4910   -12.6760    10.0990 ha         1 CT6       0.126500
@<TRIPOS>BOND
     1     1     2 1   
     2     2     3 ar  
     3     2     7 ar  
     4     3     4 ar  
     5     3    25 1   
     6     4     5 ar  
     7     4     8 1   
     8     5     6 ar  
     9     5    26 1   
    10     6     7 ar  
    11     6    27 1   
    12     7    28 1   
    13     8     9 1   
    14     8    16 2   
    15     9    10 2   
    16     9    29 1   
    17    10    11 1   
    18    10    17 1   
    19    11    12 1   
    20    11    14 1   
    21    12    13 2   
    22    13    15 1   
    23    13    30 1   
    24    14    15 2   
    25    14    16 1   
    26    15    31 1   
    27    17    18 1   
    28    17    32 1   
    29    18    19 1   
    30    18    33 1   
    31    18    34 1   
    32    19    20 ar  
    33    19    24 ar  
    34    20    21 ar  
    35    20    35 1   
    36    21    22 ar  
    37    21    36 1   
    38    22    23 ar  
    39    23    24 ar  
    40    23    37 1   
    41    24    38 1   
@<TRIPOS>SUBSTRUCTURE
     1 CT6         1 TEMP              0 ****  ****    0 ROOT
