@<TRIPOS>MOLECULE
CT7
   32    34     1     0     0
SMALL
No Charge or Current Charge


@<TRIPOS>ATOM
      1 O3          -0.1040    -1.8750     5.0610 o          1 CT7      -0.525000
      2 S1          -0.1190    -0.4120     4.9360 sy         1 CT7       1.064500
      3 O2          -1.0050     0.4150     5.7660 o          1 CT7      -0.525000
      4 C16         -0.3720     0.0220     3.2040 ca         1 CT7      -0.295500
      5 C15         -0.8990     1.2830     2.8600 ca         1 CT7       0.013000
      6 C17         -0.0340    -0.8960     2.1890 ca         1 CT7       0.013000
      7 C18         -0.2260    -0.5490     0.8410 ca         1 CT7      -0.156000
      8 C14         -1.0850     1.6180     1.5080 ca         1 CT7      -0.156000
      9 C13         -0.7390     0.7120     0.4960 ca         1 CT7       0.361000
     10 N5          -0.9570     1.0620    -0.8370 nu         1 CT7      -0.977000
     11 C9          -0.3720     0.6560    -2.0240 cc         1 CT7       0.384000
     12 N2           1.0000     0.3540    -2.1640 na         1 CT7       0.077900
     13 C10          1.4560    -0.0490    -3.3970 cc         1 CT7       0.399500
     14 N1           0.7910    -0.2300    -4.5680 nc         1 CT7      -0.651000
     15 C11          3.0510     0.1170    -1.8510 cd         1 CT7       0.388500
     16 N3           1.9680     0.4900    -1.1770 nc         1 CT7      -0.569100
     17 C8          -1.0980     0.5010    -3.1920 cd         1 CT7      -0.292000
     18 C7          -0.4950     0.0580    -4.4230 cd         1 CT7       0.501000
     19 Cl1         -1.5210    -0.1080    -5.8090 cl         1 CT7      -0.145000
     20 C12          2.7850    -0.2190    -3.2050 cd         1 CT7      -0.368600
     21 C20          1.5520     0.1480     5.2540 c3         1 CT7      -0.335100
     22 H15         -1.1650     2.0060     3.6310 ha         1 CT7       0.140500
     23 H17          0.3730    -1.8760     2.4360 ha         1 CT7       0.140500
     24 H18          0.0240    -1.2650     0.0650 ha         1 CT7       0.127000
     25 H14         -1.4930     2.5910     1.2500 ha         1 CT7       0.127000
     26 HN5         -1.7200     1.7250    -0.9740 hn         1 CT7       0.512000
     27 H11          4.0090     0.1060    -1.3440 h4         1 CT7       0.050800
     28 H8          -2.1600     0.7060    -3.1830 ha         1 CT7       0.153000
     29 H12          3.5060    -0.5360    -3.9470 ha         1 CT7       0.234000
     30 H201         1.7950    -0.0780     6.2970 h1         1 CT7       0.102700
     31 H202         2.2260    -0.3850     4.5750 h1         1 CT7       0.102700
     32 H203         1.5920     1.2270     5.0710 h1         1 CT7       0.102700
@<TRIPOS>BOND
     1     1     2 2   
     2     2     3 2   
     3     2     4 1   
     4     2    21 1   
     5     4     5 ar  
     6     4     6 ar  
     7     5     8 ar  
     8     5    22 1   
     9     6     7 ar  
    10     6    23 1   
    11     7     9 ar  
    12     7    24 1   
    13     8     9 ar  
    14     8    25 1   
    15     9    10 1   
    16    10    11 1   
    17    10    26 1   
    18    11    12 1   
    19    11    17 2   
    20    12    13 1   
    21    12    16 1   
    22    13    14 1   
    23    13    20 2   
    24    14    18 2   
    25    15    16 2   
    26    15    20 1   
    27    15    27 1   
    28    17    18 1   
    29    17    28 1   
    30    18    19 1   
    31    20    29 1   
    32    21    30 1   
    33    21    31 1   
    34    21    32 1   
@<TRIPOS>SUBSTRUCTURE
     1 CT7         1 TEMP              0 ****  ****    0 ROOT
