@<TRIPOS>MOLECULE
CT7
   32    34     1     0     0
SMALL
bcc


@<TRIPOS>ATOM
      1 O3          -0.1590    -1.8670     4.8690 o          1 CT7      -0.595800
      2 S1          -0.0550    -0.4120     4.7650 sy         1 CT7       1.095300
      3 O2          -0.9110     0.4140     5.6140 o          1 CT7      -0.595800
      4 C16         -0.3300     0.0500     3.0810 ca         1 CT7      -0.295500
      5 C15         -0.8440     1.3060     2.7900 ca         1 CT7      -0.005000
      6 C17         -0.0300    -0.8490     2.0640 ca         1 CT7      -0.005000
      7 C18         -0.2320    -0.4850     0.7470 ca         1 CT7      -0.174000
      8 C14         -1.0350     1.6720     1.4710 ca         1 CT7      -0.174000
      9 C13         -0.7220     0.7850     0.4430 ca         1 CT7       0.222600
     10 N5          -0.9720     1.1920    -0.8690 nu         1 CT7      -0.645000
     11 C9          -0.4410     0.6700    -2.0040 cc         1 CT7       0.296300
     12 N2           0.8920     0.3980    -2.0670 na         1 CT7       0.027200
     13 C10          1.4780    -0.1070    -3.2210 cc         1 CT7       0.399500
     14 N1           0.7680    -0.3260    -4.3380 nc         1 CT7      -0.651000
     15 C11          2.9340     0.2310    -1.6140 cd         1 CT7       0.388500
     16 N3           1.7790     0.6180    -1.0950 nc         1 CT7      -0.569100
     17 C8          -1.1680     0.4580    -3.1510 cd         1 CT7      -0.375300
     18 C7          -0.4910    -0.0340    -4.2780 cd         1 CT7       0.566300
     19 CL1         -1.4250    -0.3010    -5.7090 cl         1 CT7      -0.145000
     20 C12          2.8220    -0.2320    -2.9270 cd         1 CT7      -0.318600
     21 C20          1.6360     0.0480     5.0670 c3         1 CT7      -0.224300
     22 H15         -1.0890     2.0060     3.5780 ha         1 CT7       0.158500
     23 H17          0.3430    -1.8390     2.2900 ha         1 CT7       0.158500
     24 H18         -0.0320    -1.2060    -0.0340 ha         1 CT7       0.145000
     25 H14         -1.4250     2.6540     1.2350 ha         1 CT7       0.145000
     26 HN5         -1.8270     1.7120    -1.0080 hn         1 CT7       0.456800
     27 H11          3.8320     0.3080    -1.0190 h4         1 CT7       0.050800
     28 H8          -2.2310     0.6410    -3.1600 ha         1 CT7       0.171000
     29 H12          3.5990    -0.5910    -3.5790 ha         1 CT7       0.184000
     30 H201         1.8620    -0.2040     6.1020 h1         1 CT7       0.102700
     31 H202         2.2880    -0.5050     4.3960 h1         1 CT7       0.102700
     32 H203         1.7510     1.1180     4.9090 h1         1 CT7       0.102700
@<TRIPOS>BOND
     1     1     2 2   
     2     2     3 2   
     3     2     4 1   
     4     2    21 1   
     5     4     5 ar  
     6     4     6 ar  
     7     5     8 ar  
     8     5    22 1   
     9     6     7 ar  
    10     6    23 1   
    11     7     9 ar  
    12     7    24 1   
    13     8     9 ar  
    14     8    25 1   
    15     9    10 1   
    16    10    11 1   
    17    10    26 1   
    18    11    12 1   
    19    11    17 2   
    20    12    13 1   
    21    12    16 1   
    22    13    14 1   
    23    13    20 2   
    24    14    18 2   
    25    15    16 2   
    26    15    20 1   
    27    15    27 1   
    28    17    18 1   
    29    17    28 1   
    30    18    19 1   
    31    20    29 1   
    32    21    30 1   
    33    21    31 1   
    34    21    32 1   
@<TRIPOS>SUBSTRUCTURE
     1 CT7         1 TEMP              0 ****  ****    0 ROOT
