@<TRIPOS>MOLECULE
CT8
   38    41     1     0     0
SMALL
abcg2


@<TRIPOS>ATOM
      1 BR1          2.3150    -3.3110     0.1910 br         1 CT8      -0.054100
      2 C1           2.4500    -1.4380     0.0250 ca         1 CT8      -0.034900
      3 C2           1.2920    -0.6800    -0.0170 ca         1 CT8      -0.048000
      4 C3           1.3810     0.7050    -0.1510 cp         1 CT8      -0.211500
      5 C4           2.6340     1.3070    -0.2520 ca         1 CT8      -0.029000
      6 C5           3.7810     0.5340    -0.1990 ca         1 CT8      -0.113000
      7 C6           3.7020    -0.8450    -0.0600 ca         1 CT8      -0.028000
      8 C7           0.1610     1.5310    -0.2060 cp         1 CT8       0.564500
      9 C8          -1.0140     1.0940     0.3990 ca         1 CT8      -0.273000
     10 C9          -2.1820     1.8450     0.3040 ca         1 CT8       0.157800
     11 N2          -2.0240     3.0120    -0.3800 na         1 CT8      -0.148500
     12 N3          -2.9100     3.9860    -0.6510 na         1 CT8      -0.356800
     13 C12         -2.2430     4.9230    -1.3230 cc         1 CT8       0.550700
     14 C10         -0.8250     3.4160    -0.9190 ca         1 CT8       0.758500
     15 N1           0.2600     2.6920    -0.8530 nb         1 CT8      -0.648000
     16 N4          -3.3600     1.5060     0.8010 nu         1 CT8      -0.369800
     17 C13         -3.5690     0.2460     1.4920 c3         1 CT8       0.116900
     18 C14         -3.3920    -0.9530     0.5960 ca         1 CT8      -0.106300
     19 C15         -2.7150    -2.0780     1.0490 ca         1 CT8      -0.158000
     20 C16         -2.5760    -3.1660     0.1980 ca         1 CT8       0.354900
     21 N5          -3.0590    -3.1940    -1.0380 nb         1 CT8      -0.629000
     22 C17         -3.7080    -2.1170    -1.4650 ca         1 CT8       0.354900
     23 C18         -3.9010    -0.9800    -0.6960 ca         1 CT8      -0.158000
     24 N11         -0.9860     4.6150    -1.5020 nd         1 CT8      -0.619700
     25 H2           0.3280    -1.1690     0.0250 ha         1 CT8       0.127000
     26 H4           2.7110     2.3800    -0.3590 ha         1 CT8       0.144000
     27 H5           4.7520     1.0050    -0.2670 ha         1 CT8       0.141000
     28 H6           4.6050    -1.4390    -0.0230 ha         1 CT8       0.150000
     29 H8          -1.0260     0.1810     0.9710 ha         1 CT8       0.179000
     30 H3          -3.8880     3.9610    -0.3950 hn         1 CT8       0.417000
     31 H12         -2.7350     5.8200    -1.6610 h5         1 CT8       0.119800
     32 HA          -4.1510     2.1260     0.7400 hn         1 CT8       0.353000
     33 H131        -2.9060     0.1810     2.3580 h1         1 CT8       0.086700
     34 H132        -4.5870     0.2730     1.8790 h1         1 CT8       0.086700
     35 H15         -2.2900    -2.1120     2.0440 ha         1 CT8       0.124000
     36 H16         -2.0450    -4.0490     0.5330 h4         1 CT8       0.038600
     37 H17         -4.0980    -2.1550    -2.4760 h4         1 CT8       0.038600
     38 H18         -4.4370    -0.1360    -1.1110 ha         1 CT8       0.124000
@<TRIPOS>BOND
     1     1     2 1   
     2     2     3 ar  
     3     2     7 ar  
     4     3     4 ar  
     5     3    25 1   
     6     4     5 ar  
     7     4     8 1   
     8     5     6 ar  
     9     5    26 1   
    10     6     7 ar  
    11     6    27 1   
    12     7    28 1   
    13     8     9 ar  
    14     8    15 ar  
    15     9    10 ar  
    16     9    29 1   
    17    10    11 1   
    18    10    16 1   
    19    11    12 1   
    20    11    14 2   
    21    12    13 1   
    22    12    30 1   
    23    13    24 2   
    24    13    31 1   
    25    14    15 ar  
    26    14    24 1   
    27    16    17 1   
    28    16    32 1   
    29    17    18 1   
    30    17    33 1   
    31    17    34 1   
    32    18    19 ar  
    33    18    23 ar  
    34    19    20 ar  
    35    19    35 1   
    36    20    21 ar  
    37    20    36 1   
    38    21    22 ar  
    39    22    23 ar  
    40    22    37 1   
    41    23    38 1   
@<TRIPOS>SUBSTRUCTURE
     1 CT8         1 TEMP              0 ****  ****    0 ROOT
