@<TRIPOS>MOLECULE
CT8
   38    41     1     0     0
SMALL
No Charge or Current Charge


@<TRIPOS>ATOM
      1 Br1          2.4860    -3.3700     0.2450 br         1 CT8      -0.054100
      2 C1           2.6040    -1.4710     0.0490 ca         1 CT8      -0.034900
      3 C2           1.4290    -0.7040    -0.0210 ca         1 CT8      -0.048000
      4 C3           1.4810     0.7100    -0.1680 cp         1 CT8      -0.211500
      5 C4           2.7670     1.3140    -0.2540 ca         1 CT8      -0.029000
      6 C5           3.9400     0.5410    -0.1820 ca         1 CT8      -0.113000
      7 C6           3.8610    -0.8520    -0.0290 ca         1 CT8      -0.028000
      8 C7           0.2230     1.5280    -0.2450 cp         1 CT8       0.564500
      9 C8          -0.9910     1.1010     0.3540 ca         1 CT8      -0.273000
     10 C9          -2.1610     1.8670     0.2070 ca         1 CT8       0.157800
     11 N2          -2.0700     2.9660    -0.6380 na         1 CT8      -0.148500
     12 N3          -2.9730     3.9930    -0.6600 na         1 CT8      -0.356800
     13 C12         -2.2520     5.0690    -1.1410 cc         1 CT8       0.550700
     14 C10         -0.8170     3.4310    -0.9320 ca         1 CT8       0.758500
     15 N1           0.3200     2.7420    -0.8250 nb         1 CT8      -0.648000
     16 N4          -3.3830     1.5050     0.7910 nu         1 CT8      -0.369800
     17 C13         -3.6890     0.2620     1.5170 c3         1 CT8       0.116900
     18 C14         -3.5190    -0.9650     0.6240 ca         1 CT8      -0.106300
     19 C15         -2.7100    -2.0480     1.0180 ca         1 CT8      -0.158000
     20 C16         -2.5710    -3.1560     0.1640 ca         1 CT8       0.354900
     21 N5          -3.1860    -3.2410    -1.0390 nb         1 CT8      -0.629000
     22 C17         -3.9690    -2.2040    -1.4190 ca         1 CT8       0.354900
     23 C18         -4.1620    -1.0600    -0.6250 ca         1 CT8      -0.158000
     24 N11         -0.9590     4.7620    -1.3060 nd         1 CT8      -0.619700
     25 H2           0.4730    -1.2210     0.0220 ha         1 CT8       0.127000
     26 H4           2.8620     2.3920    -0.3690 ha         1 CT8       0.144000
     27 H5           4.9130     1.0250    -0.2460 ha         1 CT8       0.141000
     28 H6           4.7690    -1.4480     0.0260 ha         1 CT8       0.150000
     29 H8          -1.0010     0.1890     0.9370 ha         1 CT8       0.179000
     30 H3          -3.9460     3.8020    -0.8730 hn         1 CT8       0.417000
     31 H12         -2.7230     6.0110    -1.4000 h5         1 CT8       0.119800
     32 HA          -4.1470     2.1680     0.6900 hn         1 CT8       0.353000
     33 H131        -3.0370     0.1790     2.3970 h1         1 CT8       0.086700
     34 H132        -4.7240     0.2930     1.8830 h1         1 CT8       0.086700
     35 H15         -2.1900    -2.0400     1.9730 ha         1 CT8       0.124000
     36 H16         -1.9460    -4.0020     0.4510 h4         1 CT8       0.038600
     37 H17         -4.4560    -2.2930    -2.3890 h4         1 CT8       0.038600
     38 H18         -4.8030    -0.2600    -0.9860 ha         1 CT8       0.124000
@<TRIPOS>BOND
     1     1     2 1   
     2     2     3 ar  
     3     2     7 ar  
     4     3     4 ar  
     5     3    25 1   
     6     4     5 ar  
     7     4     8 1   
     8     5     6 ar  
     9     5    26 1   
    10     6     7 ar  
    11     6    27 1   
    12     7    28 1   
    13     8     9 ar  
    14     8    15 ar  
    15     9    10 ar  
    16     9    29 1   
    17    10    11 1   
    18    10    16 1   
    19    11    12 1   
    20    11    14 2   
    21    12    13 1   
    22    12    30 1   
    23    13    24 2   
    24    13    31 1   
    25    14    15 ar  
    26    14    24 1   
    27    16    17 1   
    28    16    32 1   
    29    17    18 1   
    30    17    33 1   
    31    17    34 1   
    32    18    19 ar  
    33    18    23 ar  
    34    19    20 ar  
    35    19    35 1   
    36    20    21 ar  
    37    20    36 1   
    38    21    22 ar  
    39    22    23 ar  
    40    22    37 1   
    41    23    38 1   
@<TRIPOS>SUBSTRUCTURE
     1 CT8         1 TEMP              0 ****  ****    0 ROOT
