@<TRIPOS>MOLECULE
CT9
   66    69     1     0     0
SMALL
No Charge or Current Charge


@<TRIPOS>ATOM
      1 N8          -3.6770     1.0870    -7.4830 n8         1 CT9      -0.999200
      2 C61         -1.5500    -2.0090     6.4860 c3         1 CT9       0.166600
      3 S1          -0.2050     0.3100     6.5460 sy         1 CT9       1.150600
      4 N6          -1.5540    -0.6290     7.0170 n3         1 CT9      -0.697500
      5 C62         -2.8590     0.0380     6.8160 c3         1 CT9       0.166600
      6 O2           0.9810    -0.5040     6.8390 o          1 CT9      -0.534500
      7 C4          -2.4820     0.2840    -7.1720 c6         1 CT9       0.160500
      8 C5          -2.8720    -0.9870    -6.3750 c6         1 CT9      -0.076400
      9 C6          -1.6190    -1.8310    -6.0120 c6         1 CT9      -0.094400
     10 C3          -1.4440     1.1310    -6.3930 c6         1 CT9      -0.076400
     11 C2          -0.1870     0.2910    -6.0390 c6         1 CT9      -0.094400
     12 C1          -0.5350    -1.0100    -5.2620 c6         1 CT9       0.250500
     13 N7          -1.0040    -0.6900    -3.9000 nu         1 CT9      -0.930100
     14 C7          -0.2100    -0.4260    -2.8300 cc         1 CT9       0.669900
     15 C8          -0.9050     0.0620    -1.6780 cc         1 CT9      -0.330000
     16 N1           1.0830    -0.6390    -2.9630 nd         1 CT9      -0.765000
     17 C10          1.6820    -0.2940    -1.7730 cd         1 CT9       0.441500
     18 C11          3.0280    -0.3130    -1.5890 cc         1 CT9      -0.303800
     19 C20          4.1510    -0.7180    -2.5160 c3         1 CT9       0.027500
     20 C21          5.0570     0.4820    -2.8580 c3         1 CT9      -0.083100
     21 C22          4.9600    -1.8970    -1.9370 c3         1 CT9      -0.083100
     22 C12          3.1980     0.1870    -0.2660 cc         1 CT9       0.402500
     23 N2           1.1490     0.1690    -0.5890 na         1 CT9       0.059900
     24 N3           2.0840     0.5150     0.3810 nd         1 CT9      -0.575100
     25 C9          -0.2430     0.3560    -0.5080 cd         1 CT9       0.389000
     26 N5          -0.9160     0.8350     0.5950 nu         1 CT9      -0.977000
     27 C13         -0.7150     0.7070     1.9710 ca         1 CT9       0.371000
     28 C18         -1.2960     1.6500     2.8310 ca         1 CT9      -0.169500
     29 C17         -1.1400     1.5380     4.2230 ca         1 CT9       0.016500
     30 C14          0.0010    -0.3730     2.5120 ca         1 CT9      -0.169500
     31 C15          0.1630    -0.4960     3.9010 ca         1 CT9       0.016500
     32 C16         -0.4110     0.4600     4.7620 ca         1 CT9      -0.341500
     33 O3          -0.3810     1.6240     7.1750 o          1 CT9      -0.534500
     34 HN81        -3.3990     1.8680    -8.0890 hn         1 CT9       0.394500
     35 HN82        -4.2990     0.5310    -8.0820 hn         1 CT9       0.394500
     36 H611        -2.3810    -2.5870     6.9120 h1         1 CT9       0.052367
     37 H612        -1.6610    -2.0170     5.3940 h1         1 CT9       0.052367
     38 H613        -0.6210    -2.5340     6.7430 h1         1 CT9       0.052367
     39 H621        -2.8900     1.0150     7.3170 h1         1 CT9       0.052367
     40 H622        -3.0700     0.1890     5.7490 h1         1 CT9       0.052367
     41 H623        -3.6710    -0.5710     7.2360 h1         1 CT9       0.052367
     42 H4          -2.0400    -0.0210    -8.1330 h1         1 CT9       0.015700
     43 H51         -3.5650    -1.6020    -6.9660 hc         1 CT9       0.046700
     44 H52         -3.4120    -0.7070    -5.4600 hc         1 CT9       0.046700
     45 H61         -1.1800    -2.2330    -6.9360 hc         1 CT9       0.055450
     46 H62         -1.9110    -2.7030    -5.4120 hc         1 CT9       0.055450
     47 H31         -1.1430     2.0010    -6.9920 hc         1 CT9       0.046700
     48 H32         -1.8960     1.5290    -5.4730 hc         1 CT9       0.046700
     49 H21          0.5210     0.8990    -5.4610 hc         1 CT9       0.055450
     50 H22          0.3350     0.0200    -6.9660 hc         1 CT9       0.055450
     51 H1           0.3720    -1.6340    -5.2120 h1         1 CT9       0.077700
     52 HN7         -1.9790    -0.4480    -3.7630 hn         1 CT9       0.495000
     53 H8          -1.9790     0.1840    -1.7320 ha         1 CT9       0.132000
     54 H20          3.7170    -1.0670    -3.4620 hc         1 CT9       0.060700
     55 H211         5.8290     0.1910    -3.5810 hc         1 CT9       0.031200
     56 H212         4.4680     1.2950    -3.3000 hc         1 CT9       0.031200
     57 H213         5.5570     0.8670    -1.9610 hc         1 CT9       0.031200
     58 H221         5.4560    -1.6130    -1.0010 hc         1 CT9       0.031200
     59 H222         4.3010    -2.7500    -1.7320 hc         1 CT9       0.031200
     60 H223         5.7290    -2.2250    -2.6470 hc         1 CT9       0.031200
     61 H12          4.1410     0.3340     0.2450 h4         1 CT9       0.046800
     62 HN5         -1.7580     1.3540     0.3500 hn         1 CT9       0.503000
     63 H18         -1.8630     2.4810     2.4230 ha         1 CT9       0.125000
     64 H17         -1.5900     2.2860     4.8730 ha         1 CT9       0.135000
     65 H14          0.4260    -1.1270     1.8590 ha         1 CT9       0.125000
     66 H15          0.7280    -1.3380     4.3010 ha         1 CT9       0.135000
@<TRIPOS>BOND
     1     1     7 1   
     2     1    34 1   
     3     1    35 1   
     4     2     4 1   
     5     2    36 1   
     6     2    37 1   
     7     2    38 1   
     8     3     4 1   
     9     3     6 2   
    10     3    32 1   
    11     3    33 2   
    12     4     5 1   
    13     5    39 1   
    14     5    40 1   
    15     5    41 1   
    16     7     8 1   
    17     7    10 1   
    18     7    42 1   
    19     8     9 1   
    20     8    43 1   
    21     8    44 1   
    22     9    12 1   
    23     9    45 1   
    24     9    46 1   
    25    10    11 1   
    26    10    47 1   
    27    10    48 1   
    28    11    12 1   
    29    11    49 1   
    30    11    50 1   
    31    12    13 1   
    32    12    51 1   
    33    13    14 1   
    34    13    52 1   
    35    14    15 1   
    36    14    16 2   
    37    15    25 2   
    38    15    53 1   
    39    16    17 1   
    40    17    18 2   
    41    17    23 1   
    42    18    19 1   
    43    18    22 1   
    44    19    20 1   
    45    19    21 1   
    46    19    54 1   
    47    20    55 1   
    48    20    56 1   
    49    20    57 1   
    50    21    58 1   
    51    21    59 1   
    52    21    60 1   
    53    22    24 2   
    54    22    61 1   
    55    23    24 1   
    56    23    25 1   
    57    25    26 1   
    58    26    27 1   
    59    26    62 1   
    60    27    28 ar  
    61    27    30 ar  
    62    28    29 ar  
    63    28    63 1   
    64    29    32 ar  
    65    29    64 1   
    66    30    31 ar  
    67    30    65 1   
    68    31    32 ar  
    69    31    66 1   
@<TRIPOS>SUBSTRUCTURE
     1 CT9         1 TEMP              0 ****  ****    0 ROOT
