@<TRIPOS>MOLECULE
CT9
   66    69     1     0     0
SMALL
bcc


@<TRIPOS>ATOM
      1 N8          -3.2280     1.0960    -7.5860 n8         1 CT9      -0.888800
      2 C61         -1.7060    -2.1590     6.1120 c3         1 CT9       0.166600
      3 S1          -0.0230    -0.1290     6.2490 sy         1 CT9       1.292200
      4 N6          -1.4250    -0.8700     6.7350 n3         1 CT9      -0.697500
      5 C62         -2.5990    -0.0120     6.8420 c3         1 CT9       0.166600
      6 O2           1.0300    -1.1280     6.3270 o          1 CT9      -0.605300
      7 C4          -2.2210     0.1320    -7.1650 c6         1 CT9       0.160500
      8 C5          -2.8710    -0.9560    -6.3170 c6         1 CT9      -0.076400
      9 C6          -1.8380    -1.9470    -5.7860 c6         1 CT9      -0.094400
     10 C3          -1.1270     0.8330    -6.3670 c6         1 CT9      -0.076400
     11 C2          -0.0840    -0.1580    -5.8680 c6         1 CT9      -0.094400
     12 C1          -0.7130    -1.2620    -5.0110 c6         1 CT9       0.250500
     13 N7          -1.2430    -0.7480    -3.7610 nu         1 CT9      -0.874900
     14 C7          -0.4850    -0.3280    -2.7320 cc         1 CT9       0.735200
     15 C8          -1.1430     0.2420    -1.5930 cc         1 CT9      -0.413300
     16 N1           0.8210    -0.4840    -2.7890 nd         1 CT9      -0.765000
     17 C10          1.5380    -0.0490    -1.7440 cd         1 CT9       0.441500
     18 C11          2.9050    -0.0070    -1.5150 cc         1 CT9      -0.303800
     19 C20          3.9920    -0.5190    -2.4080 c3         1 CT9       0.027500
     20 C21          4.9530     0.5970    -2.8190 c3         1 CT9      -0.083100
     21 C22          4.7490    -1.6750    -1.7530 c3         1 CT9      -0.083100
     22 C12          3.0180     0.6290    -0.2700 cc         1 CT9       0.402500
     23 N2           0.9570     0.5380    -0.6340 na         1 CT9       0.009200
     24 N3           1.8560     0.9670     0.2640 nd         1 CT9      -0.575100
     25 C9          -0.3980     0.6750    -0.5410 cd         1 CT9       0.301300
     26 N5          -0.9170     1.3000     0.5650 nu         1 CT9      -0.645000
     27 C13         -0.6650     0.9440     1.8830 ca         1 CT9       0.232600
     28 C18         -1.0760     1.8170     2.8920 ca         1 CT9      -0.187500
     29 C17         -0.8670     1.5030     4.2210 ca         1 CT9      -0.001500
     30 C14         -0.0500    -0.2610     2.2280 ca         1 CT9      -0.187500
     31 C15          0.1650    -0.5740     3.5560 ca         1 CT9      -0.001500
     32 C16         -0.2410     0.3060     4.5540 ca         1 CT9      -0.341500
     33 O3           0.0980     1.0960     7.0230 o          1 CT9      -0.605300
     34 HN81        -2.7970     1.7880    -8.1880 hn         1 CT9       0.339300
     35 HN82        -3.9190     0.6310    -8.1630 hn         1 CT9       0.339300
     36 H611        -2.5110    -2.6290     6.6740 h1         1 CT9       0.052367
     37 H612        -2.0290    -2.0630     5.0700 h1         1 CT9       0.052367
     38 H613        -0.8400    -2.8130     6.1610 h1         1 CT9       0.052367
     39 H621        -2.3710     0.8870     7.4070 h1         1 CT9       0.052367
     40 H622        -3.0090     0.2690     5.8670 h1         1 CT9       0.052367
     41 H623        -3.3640    -0.5640     7.3850 h1         1 CT9       0.052367
     42 H4          -1.7340    -0.3660    -8.0220 h1         1 CT9       0.015700
     43 H51         -3.6180    -1.4950    -6.9060 hc         1 CT9       0.046700
     44 H52         -3.4210    -0.4770    -5.4980 hc         1 CT9       0.046700
     45 H61         -1.3870    -2.4800    -6.6270 hc         1 CT9       0.055450
     46 H62         -2.3180    -2.7040    -5.1600 hc         1 CT9       0.055450
     47 H31         -0.6460     1.5960    -6.9860 hc         1 CT9       0.046700
     48 H32         -1.5850     1.3590    -5.5220 hc         1 CT9       0.046700
     49 H21          0.6970     0.3490    -5.3020 hc         1 CT9       0.055450
     50 H22          0.4090    -0.6340    -6.7230 hc         1 CT9       0.055450
     51 H1           0.0550    -2.0010    -4.7720 h1         1 CT9       0.077700
     52 HN7         -2.2320    -0.5740    -3.7010 hn         1 CT9       0.439800
     53 H8          -2.2200     0.3150    -1.5500 ha         1 CT9       0.150000
     54 H20          3.5140    -0.9010    -3.3160 hc         1 CT9       0.060700
     55 H211         5.7340     0.2170    -3.4800 hc         1 CT9       0.031200
     56 H212         4.4290     1.3970    -3.3430 hc         1 CT9       0.031200
     57 H213         5.4430     1.0350    -1.9470 hc         1 CT9       0.031200
     58 H221         5.2270    -1.3550    -0.8240 hc         1 CT9       0.031200
     59 H222         4.0790    -2.5020    -1.5150 hc         1 CT9       0.031200
     60 H223         5.5310    -2.0570    -2.4120 hc         1 CT9       0.031200
     61 H12          3.9280     0.8650     0.2650 h4         1 CT9       0.046800
     62 HN5         -1.7830     1.7930     0.4030 hn         1 CT9       0.447800
     63 H18         -1.5480     2.7560     2.6300 ha         1 CT9       0.143000
     64 H17         -1.1750     2.2040     4.9850 ha         1 CT9       0.153000
     65 H14          0.2520    -0.9690     1.4690 ha         1 CT9       0.143000
     66 H15          0.6470    -1.5090     3.8050 ha         1 CT9       0.153000
@<TRIPOS>BOND
     1     1     7 1   
     2     1    34 1   
     3     1    35 1   
     4     2     4 1   
     5     2    36 1   
     6     2    37 1   
     7     2    38 1   
     8     3     4 1   
     9     3     6 2   
    10     3    32 1   
    11     3    33 2   
    12     4     5 1   
    13     5    39 1   
    14     5    40 1   
    15     5    41 1   
    16     7     8 1   
    17     7    10 1   
    18     7    42 1   
    19     8     9 1   
    20     8    43 1   
    21     8    44 1   
    22     9    12 1   
    23     9    45 1   
    24     9    46 1   
    25    10    11 1   
    26    10    47 1   
    27    10    48 1   
    28    11    12 1   
    29    11    49 1   
    30    11    50 1   
    31    12    13 1   
    32    12    51 1   
    33    13    14 1   
    34    13    52 1   
    35    14    15 1   
    36    14    16 2   
    37    15    25 2   
    38    15    53 1   
    39    16    17 1   
    40    17    18 2   
    41    17    23 1   
    42    18    19 1   
    43    18    22 1   
    44    19    20 1   
    45    19    21 1   
    46    19    54 1   
    47    20    55 1   
    48    20    56 1   
    49    20    57 1   
    50    21    58 1   
    51    21    59 1   
    52    21    60 1   
    53    22    24 2   
    54    22    61 1   
    55    23    24 1   
    56    23    25 1   
    57    25    26 1   
    58    26    27 1   
    59    26    62 1   
    60    27    28 ar  
    61    27    30 ar  
    62    28    29 ar  
    63    28    63 1   
    64    29    32 ar  
    65    29    64 1   
    66    30    31 ar  
    67    30    65 1   
    68    31    32 ar  
    69    31    66 1   
@<TRIPOS>SUBSTRUCTURE
     1 CT9         1 TEMP              0 ****  ****    0 ROOT
