@<TRIPOS>MOLECULE
CTD
   31    32     1     0     0
SMALL
abcg2


@<TRIPOS>ATOM
      1 N1          -0.0770    -0.3820     0.8920 n          1 CTD      -0.298000
      2 C2          -0.8200    -0.7880     2.0090 c          1 CTD       0.579200
      3 C3          -0.3850    -0.2890     3.2620 cc         1 CTD      -0.450200
      4 C4           0.6710     0.5900     3.3930 cd         1 CTD       0.272000
      5 C5           1.3360     1.0120     2.2030 cd         1 CTD      -0.352000
      6 C6           0.9390     0.5070     1.0150 cc         1 CTD       0.003600
      7 O2          -1.7920    -1.5330     1.8530 o          1 CTD      -0.574000
      8 N4           1.1020     1.0410     4.5880 nv         1 CTD      -0.963000
      9 C1          -0.5090    -0.8590    -0.4260 c5         1 CTD       0.314700
     10 C7          -1.5310     0.0770    -1.0830 c5         1 CTD       0.100300
     11 O1          -2.4670    -0.7000    -1.7810 oh         1 CTD      -0.695000
     12 C8          -0.6550     0.8670    -2.0600 c5         1 CTD       0.084300
     13 C9           0.3730    -0.1820    -2.4710 c5         1 CTD       0.165300
     14 O4           0.6000    -0.9350    -1.2850 os         1 CTD      -0.437000
     15 O3          -1.3460     1.3320    -3.1880 oh         1 CTD      -0.707000
     16 C10          1.6590     0.3960    -3.0000 c3         1 CTD       0.168600
     17 O5           2.5050    -0.6520    -3.3980 oh         1 CTD      -0.700000
     18 H3          -0.9350    -0.6160     4.1350 ha         1 CTD       0.205000
     19 H5           2.1610     1.7080     2.2410 ha         1 CTD       0.193000
     20 H6           1.4450     0.8010     0.1090 h4         1 CTD       0.200000
     21 HN41         1.7120     1.8390     4.6260 hn         1 CTD       0.478000
     22 HN42         0.5380     0.8920     5.4060 hn         1 CTD       0.478000
     23 H1          -0.9450    -1.8460    -0.2720 h2         1 CTD       0.134700
     24 H2          -2.0210     0.7180    -0.3390 h1         1 CTD       0.072700
     25 HO2         -2.6920    -0.2130    -2.5840 ho         1 CTD       0.520000
     26 H7          -0.1640     1.6910    -1.5310 h1         1 CTD       0.048700
     27 H4          -0.0710    -0.8300    -3.2390 h1         1 CTD       0.088700
     28 HO3         -1.8130     2.1400    -2.9510 ho         1 CTD       0.516000
     29 H5'1         1.3960     1.0550    -3.8380 h1         1 CTD       0.024700
     30 H5'2         2.1350     1.0350    -2.2410 h1         1 CTD       0.024700
     31 HO5          3.2750    -0.2690    -3.8210 ho         1 CTD       0.505000
@<TRIPOS>BOND
     1     1     2 1   
     2     1     6 1   
     3     1     9 1   
     4     2     3 1   
     5     2     7 2   
     6     3     4 2   
     7     3    18 1   
     8     4     5 1   
     9     4     8 1   
    10     5     6 2   
    11     5    19 1   
    12     6    20 1   
    13     8    21 1   
    14     8    22 1   
    15     9    10 1   
    16     9    14 1   
    17     9    23 1   
    18    10    11 1   
    19    10    12 1   
    20    10    24 1   
    21    11    25 1   
    22    12    13 1   
    23    12    15 1   
    24    12    26 1   
    25    13    14 1   
    26    13    16 1   
    27    13    27 1   
    28    15    28 1   
    29    16    17 1   
    30    16    29 1   
    31    16    30 1   
    32    17    31 1   
@<TRIPOS>SUBSTRUCTURE
     1 CTD         1 TEMP              0 ****  ****    0 ROOT
