@<TRIPOS>MOLECULE
CTD
   31    32     1     0     0
SMALL
No Charge or Current Charge


@<TRIPOS>ATOM
      1 N1          -0.0090    -0.3000     1.0100 n          1 CTD      -0.298000
      2 C2          -0.3800    -1.1480     2.0680 c          1 CTD       0.579200
      3 C3          -0.0740    -0.6410     3.4040 cc         1 CTD      -0.450200
      4 C4           0.5170     0.5610     3.6310 cd         1 CTD       0.272000
      5 C5           0.8650     1.3800     2.5230 cd         1 CTD      -0.352000
      6 C6           0.5970     0.9380     1.2440 cc         1 CTD       0.003600
      7 O2          -0.9240    -2.2310     1.9040 o          1 CTD      -0.574000
      8 N4           0.7920     1.0190     4.8670 nv         1 CTD      -0.963000
      9 C1          -0.3590    -0.7160    -0.3770 c5         1 CTD       0.314700
     10 C7          -1.4040     0.3020    -0.9820 c5         1 CTD       0.100300
     11 O1          -2.5410    -0.3450    -1.5670 oh         1 CTD      -0.695000
     12 C8          -0.5850     0.9510    -2.1430 c5         1 CTD       0.084300
     13 C9           0.3630    -0.2300    -2.5240 c5         1 CTD       0.165300
     14 O4           0.8080    -0.6830    -1.2280 os         1 CTD      -0.437000
     15 O3          -1.4600     1.3730    -3.2100 oh         1 CTD      -0.707000
     16 C10          1.5740     0.1590    -3.4190 c3         1 CTD       0.168600
     17 O5           2.3090    -1.0040    -3.8450 oh         1 CTD      -0.700000
     18 H3          -0.3560    -1.2970     4.2170 ha         1 CTD       0.205000
     19 H5           1.3430     2.3420     2.6730 ha         1 CTD       0.193000
     20 H6           0.8410     1.4810     0.3370 h4         1 CTD       0.200000
     21 HN41         1.0940     1.9820     4.9970 hn         1 CTD       0.478000
     22 HN42         0.4280     0.5330     5.6840 hn         1 CTD       0.478000
     23 H1          -0.7850    -1.7270    -0.3550 h2         1 CTD       0.134700
     24 H2          -1.7260     1.0560    -0.2490 h1         1 CTD       0.072700
     25 HO2         -2.6230     0.1350    -2.4330 ho         1 CTD       0.520000
     26 H7          -0.0000     1.8040    -1.7690 h1         1 CTD       0.048700
     27 H4          -0.1970    -1.0380    -3.0170 h1         1 CTD       0.088700
     28 HO3         -1.0000     2.0880    -3.7140 ho         1 CTD       0.516000
     29 H5'1         1.1990     0.7030    -4.2960 h1         1 CTD       0.024700
     30 H5'2         2.2250     0.8430    -2.8580 h1         1 CTD       0.024700
     31 HO5          3.0910    -0.6800    -4.3510 ho         1 CTD       0.505000
@<TRIPOS>BOND
     1     1     2 1   
     2     1     6 1   
     3     1     9 1   
     4     2     3 1   
     5     2     7 2   
     6     3     4 2   
     7     3    18 1   
     8     4     5 1   
     9     4     8 1   
    10     5     6 2   
    11     5    19 1   
    12     6    20 1   
    13     8    21 1   
    14     8    22 1   
    15     9    10 1   
    16     9    14 1   
    17     9    23 1   
    18    10    11 1   
    19    10    12 1   
    20    10    24 1   
    21    11    25 1   
    22    12    13 1   
    23    12    15 1   
    24    12    26 1   
    25    13    14 1   
    26    13    16 1   
    27    13    27 1   
    28    15    28 1   
    29    16    17 1   
    30    16    29 1   
    31    16    30 1   
    32    17    31 1   
@<TRIPOS>SUBSTRUCTURE
     1 CTD         1 TEMP              0 ****  ****    0 ROOT
