@<TRIPOS>MOLECULE
CTE
   26    27     1     0     0
SMALL
abcg2


@<TRIPOS>ATOM
      1 O            2.7670     5.8430    14.0250 o          1 CTE      -0.723500
      2 C            3.9060     5.5790    14.4580 c          1 CTE       0.719000
      3 OXT          4.2010     4.7160    15.3090 o          1 CTE      -0.723500
      4 CA           5.0780     6.4200    13.8980 c3         1 CTE       0.020500
      5 N            5.0360     6.4700    12.4390 n8         1 CTE      -0.971200
      6 CB           5.0020     7.8600    14.4240 c3         1 CTE       0.008800
      7 CG           5.0760     7.9710    15.9110 cc         1 CTE      -0.072400
      8 CD1          6.2010     7.9460    16.6860 cd         1 CTE      -0.186100
      9 NE1          5.8720     8.0540    18.0110 na         1 CTE      -0.222700
     10 CE2          4.5230     8.1610    18.1220 ca         1 CTE      -0.043200
     11 CD2          3.9760     8.1070    16.8200 ca         1 CTE      -0.069800
     12 CE3          2.5900     8.2010    16.6550 ca         1 CTE      -0.009000
     13 CZ3          1.7920     8.3520    17.7700 ca         1 CTE      -0.163000
     14 CH2          2.3410     8.4060    19.0620 ca         1 CTE      -0.088000
     15 CZ2          3.7040     8.3090    19.2380 ca         1 CTE       0.086000
     16 CL           4.4160     8.3700    20.8170 cl         1 CTE      -0.254000
     17 HA           6.0140     5.9810    14.2740 h1         1 CTE       0.001700
     18 HN1          5.8820     6.9180    12.1050 hn         1 CTE       0.362000
     19 HN           5.0660     5.5300    12.0650 hn         1 CTE       0.362000
     20 HB1          5.8180     8.4360    13.9740 hc         1 CTE       0.033700
     21 HB2          4.0740     8.3090    14.0620 hc         1 CTE       0.033700
     22 HD1          7.2350     7.8600    16.3890 h4         1 CTE       0.200000
     23 HE1          6.5300     8.0710    18.7730 hn         1 CTE       0.342000
     24 HE3          2.1530     8.1440    15.6670 ha         1 CTE       0.149000
     25 HZ3          0.7180     8.4260    17.6600 ha         1 CTE       0.104000
     26 HH2          1.6930     8.5230    19.9210 ha         1 CTE       0.106000
@<TRIPOS>BOND
     1     1     2 1   
     2     2     3 1   
     3     2     4 1   
     4     4     5 1   
     5     4     6 1   
     6     4    17 1   
     7     5    18 1   
     8     5    19 1   
     9     6     7 1   
    10     6    20 1   
    11     6    21 1   
    12     7     8 2   
    13     7    11 1   
    14     8     9 1   
    15     8    22 1   
    16     9    10 1   
    17     9    23 1   
    18    10    11 ar  
    19    10    15 ar  
    20    11    12 ar  
    21    12    13 ar  
    22    12    24 1   
    23    13    14 ar  
    24    13    25 1   
    25    14    15 ar  
    26    14    26 1   
    27    15    16 1   
@<TRIPOS>SUBSTRUCTURE
     1 CTE         1 TEMP              0 ****  ****    0 ROOT
