@<TRIPOS>MOLECULE
CTE
   26    27     1     0     0
SMALL
No Charge or Current Charge


@<TRIPOS>ATOM
      1 O            2.6130     5.9150    14.1150 o          1 CTE      -0.723500
      2 C            3.7480     5.6070    14.4620 c          1 CTE       0.719000
      3 OXT          3.9890     4.6080    15.1300 o          1 CTE      -0.723500
      4 CA           4.9760     6.4350    13.8890 c3         1 CTE       0.020500
      5 N            5.1740     6.4000    12.3920 n8         1 CTE      -0.971200
      6 CB           4.9630     7.8990    14.4050 c3         1 CTE       0.008800
      7 CG           5.0710     8.0070    15.9050 cc         1 CTE      -0.072400
      8 CD1          6.2410     8.0080    16.6590 cd         1 CTE      -0.186100
      9 NE1          5.9240     8.1120    18.0350 na         1 CTE      -0.222700
     10 CE2          4.5430     8.1800    18.1040 ca         1 CTE      -0.043200
     11 CD2          3.9940     8.1220    16.8520 ca         1 CTE      -0.069800
     12 CE3          2.6060     8.1880    16.6500 ca         1 CTE      -0.009000
     13 CZ3          1.7750     8.3080    17.7850 ca         1 CTE      -0.163000
     14 CH2          2.3400     8.3630    19.0820 ca         1 CTE      -0.088000
     15 CZ2          3.7390     8.3010    19.2490 ca         1 CTE       0.086000
     16 Cl           4.4520     8.3750    20.8580 cl         1 CTE      -0.254000
     17 HA           5.8800     5.9690    14.3040 h1         1 CTE       0.001700
     18 HN1          6.0620     6.8570    12.1560 hn         1 CTE       0.362000
     19 HN           5.3070     5.4270    12.0930 hn         1 CTE       0.362000
     20 HB1          5.8000     8.4470    13.9540 hc         1 CTE       0.033700
     21 HB2          4.0510     8.4010    14.0580 hc         1 CTE       0.033700
     22 HD1          7.2690     7.9360    16.3160 h4         1 CTE       0.200000
     23 HE1          6.5730     8.1330    18.8170 hn         1 CTE       0.342000
     24 HE3          2.1800     8.1490    15.6510 ha         1 CTE       0.149000
     25 HZ3          0.6960     8.3600    17.6620 ha         1 CTE       0.104000
     26 HH2          1.6960     8.4570    19.9520 ha         1 CTE       0.106000
@<TRIPOS>BOND
     1     1     2 1   
     2     2     3 1   
     3     2     4 1   
     4     4     5 1   
     5     4     6 1   
     6     4    17 1   
     7     5    18 1   
     8     5    19 1   
     9     6     7 1   
    10     6    20 1   
    11     6    21 1   
    12     7     8 2   
    13     7    11 1   
    14     8     9 1   
    15     8    22 1   
    16     9    10 1   
    17     9    23 1   
    18    10    11 ar  
    19    10    15 ar  
    20    11    12 ar  
    21    12    13 ar  
    22    12    24 1   
    23    13    14 ar  
    24    13    25 1   
    25    14    15 ar  
    26    14    26 1   
    27    15    16 1   
@<TRIPOS>SUBSTRUCTURE
     1 CTE         1 TEMP              0 ****  ****    0 ROOT
