@<TRIPOS>MOLECULE
CTF
   56    59     1     0     0
SMALL
No Charge or Current Charge


@<TRIPOS>ATOM
      1 C1           3.3000     0.1900     0.4610 ca         1 CTF       0.076100
      2 O1           5.0520     0.1330    -1.7860 o          1 CTF      -0.546000
      3 O2           6.9310    -0.3930    -0.1360 o          1 CTF      -0.546000
      4 C2           2.7380    -1.0720     0.1740 ca         1 CTF       0.154100
      5 C3           1.3550    -1.1670    -0.1000 ca         1 CTF      -0.193000
      6 C4           0.5220    -0.0230    -0.0700 ca         1 CTF      -0.017300
      7 S1           5.7140     0.3300    -0.4980 s6         1 CTF       1.390800
      8 N1           6.1370     1.8980    -0.4660 n8         1 CTF      -1.062100
      9 O3           4.6410     0.3240     0.7440 os         1 CTF      -0.423800
     10 C5           1.1100     1.2400     0.2070 ca         1 CTF      -0.102300
     11 C6           2.4870     1.3320     0.4830 ca         1 CTF      -0.077000
     12 O4           3.5670    -2.1830     0.1710 os         1 CTF      -0.320100
     13 C7           3.0850    -3.5090    -0.1060 c3         1 CTF       0.148900
     14 C8          -0.9920    -0.1320    -0.3950 c6         1 CTF      -0.015400
     15 C9          -1.7900     1.1030     0.1440 c6         1 CTF      -0.046700
     16 C10         -1.1250     2.4020    -0.3560 c6         1 CTF      -0.070400
     17 C11          0.2890     2.5360     0.2420 c6         1 CTF      -0.024100
     18 C12         -1.6710    -1.4720     0.0600 c6         1 CTF      -0.067400
     19 C13         -3.1870    -1.5340    -0.3040 c6         1 CTF      -0.063400
     20 C14         -3.9690    -0.3050     0.2410 c5         1 CTF      -0.046000
     21 C15         -3.2790     0.9900    -0.2880 c5         1 CTF      -0.061700
     22 C16         -4.0590    -0.4330     1.8040 c3         1 CTF      -0.082100
     23 C17         -5.3640    -0.0660    -0.4330 c5         1 CTF      -0.056700
     24 C18         -5.6770     1.4240    -0.0390 c5         1 CTF      -0.077400
     25 C19         -4.2740     2.0990     0.1560 c5         1 CTF      -0.069400
     26 C20         -6.4790    -1.0910    -0.0780 c3         1 CTF      -0.009300
     27 C21         -7.7290    -0.8660    -0.8140 c1         1 CTF       0.297900
     28 N2          -8.7280    -0.7130    -1.3940 n1         1 CTF      -0.466000
     29 H3           0.9290    -2.1310    -0.3440 ha         1 CTF       0.121000
     30 HN1          7.1410     1.7820    -0.3640 hn         1 CTF       0.487000
     31 HN1A         6.0460     2.1030    -1.4570 hn         1 CTF       0.487000
     32 H6           2.9340     2.2970     0.7100 ha         1 CTF       0.129000
     33 H7           2.3210    -3.8080     0.6240 h1         1 CTF       0.044367
     34 H7A          2.6530    -3.5650    -1.1130 h1         1 CTF       0.044367
     35 H7B          3.9090    -4.2320    -0.0500 h1         1 CTF       0.044367
     36 H8          -1.0620    -0.1090    -1.4920 hc         1 CTF       0.058700
     37 H9          -1.7410     1.1060     1.2420 hc         1 CTF       0.057700
     38 H10         -1.0680     2.3990    -1.4540 hc         1 CTF       0.045700
     39 H10A        -1.7190     3.2820    -0.0750 hc         1 CTF       0.045700
     40 H11          0.2040     2.8650     1.2870 hc         1 CTF       0.049200
     41 H11A         0.8290     3.3360    -0.2830 hc         1 CTF       0.049200
     42 H12         -1.1930    -2.3290    -0.4300 hc         1 CTF       0.043700
     43 H12A        -1.5260    -1.6190     1.1380 hc         1 CTF       0.043700
     44 H13         -3.2840    -1.5780    -1.3980 hc         1 CTF       0.042200
     45 H13A        -3.6240    -2.4680     0.0750 hc         1 CTF       0.042200
     46 H15         -3.2350     0.9800    -1.3860 hc         1 CTF       0.046700
     47 H16         -3.0780    -0.4000     2.2870 hc         1 CTF       0.035700
     48 H16A        -4.6610     0.3570     2.2660 hc         1 CTF       0.035700
     49 H16B        -4.5190    -1.3850     2.0930 hc         1 CTF       0.035700
     50 H17         -5.2540    -0.1300    -1.5240 hc         1 CTF       0.057700
     51 H18         -6.2620     1.9250    -0.8180 hc         1 CTF       0.047700
     52 H18A        -6.2680     1.4890     0.8830 hc         1 CTF       0.047700
     53 H19         -4.1140     2.3970     1.1980 hc         1 CTF       0.045200
     54 H19A        -4.1720     3.0060    -0.4510 hc         1 CTF       0.045200
     55 H20         -6.1380    -2.1090    -0.2980 hc         1 CTF       0.071700
     56 H20A        -6.7070    -1.0610     0.9930 hc         1 CTF       0.071700
@<TRIPOS>BOND
     1     1     4 ar  
     2     1     9 1   
     3     1    11 ar  
     4     2     7 2   
     5     3     7 2   
     6     4     5 ar  
     7     4    12 1   
     8     5     6 ar  
     9     5    29 1   
    10     6    10 ar  
    11     6    14 1   
    12     7     8 1   
    13     7     9 1   
    14     8    30 1   
    15     8    31 1   
    16    10    11 ar  
    17    10    17 1   
    18    11    32 1   
    19    12    13 1   
    20    13    33 1   
    21    13    34 1   
    22    13    35 1   
    23    14    15 1   
    24    14    18 1   
    25    14    36 1   
    26    15    16 1   
    27    15    21 1   
    28    15    37 1   
    29    16    17 1   
    30    16    38 1   
    31    16    39 1   
    32    17    40 1   
    33    17    41 1   
    34    18    19 1   
    35    18    42 1   
    36    18    43 1   
    37    19    20 1   
    38    19    44 1   
    39    19    45 1   
    40    20    21 1   
    41    20    22 1   
    42    20    23 1   
    43    21    25 1   
    44    21    46 1   
    45    22    47 1   
    46    22    48 1   
    47    22    49 1   
    48    23    24 1   
    49    23    26 1   
    50    23    50 1   
    51    24    25 1   
    52    24    51 1   
    53    24    52 1   
    54    25    53 1   
    55    25    54 1   
    56    26    27 1   
    57    26    55 1   
    58    26    56 1   
    59    27    28 3   
@<TRIPOS>SUBSTRUCTURE
     1 CTF         1 TEMP              0 ****  ****    0 ROOT
