@<TRIPOS>MOLECULE
CTF
   56    59     1     0     0
SMALL
bcc


@<TRIPOS>ATOM
      1 C1           3.2190     0.0530     0.4560 ca         1 CTF       0.076100
      2 O1           5.3580    -0.4190    -1.4820 o          1 CTF      -0.616800
      3 O2           6.8970     0.0450     0.4450 o          1 CTF      -0.616800
      4 C2           2.6450    -1.1790     0.1350 ca         1 CTF       0.154100
      5 C3           1.2920    -1.2020    -0.1730 ca         1 CTF      -0.211000
      6 C4           0.5080    -0.0440    -0.1630 ca         1 CTF      -0.017300
      7 S1           5.6840     0.3190    -0.2860 s6         1 CTF       1.532400
      8 N1           5.4760     1.8990    -0.6290 n8         1 CTF      -0.951700
      9 O3           4.5490     0.0830     0.8440 os         1 CTF      -0.423800
     10 C5           1.1060     1.1790     0.1520 ca         1 CTF      -0.102300
     11 C6           2.4650     1.2030     0.4620 ca         1 CTF      -0.095000
     12 O4           3.4500    -2.2510     0.1740 os         1 CTF      -0.296900
     13 C7           2.8980    -3.5180    -0.1260 c3         1 CTF       0.125700
     14 C8          -0.9700    -0.1160    -0.5100 c6         1 CTF      -0.015400
     15 C9          -1.7300     1.0860     0.0770 c6         1 CTF      -0.046700
     16 C10         -1.0600     2.3720    -0.3840 c6         1 CTF      -0.070400
     17 C11          0.3380     2.4750     0.2050 c6         1 CTF      -0.024100
     18 C12         -1.6270    -1.4520    -0.1360 c6         1 CTF      -0.067400
     19 C13         -3.1220    -1.4900    -0.4640 c6         1 CTF      -0.063400
     20 C14         -3.8580    -0.3070     0.1540 c5         1 CTF      -0.046000
     21 C15         -3.1870     0.9860    -0.3340 c5         1 CTF      -0.061700
     22 C16         -3.8720    -0.4270     1.6820 c3         1 CTF      -0.082100
     23 C17         -5.2830    -0.0630    -0.3710 c5         1 CTF      -0.056700
     24 C18         -5.5530     1.4170    -0.0260 c5         1 CTF      -0.077400
     25 C19         -4.1630     2.0890     0.0740 c5         1 CTF      -0.069400
     26 C20         -6.3430    -1.0270     0.1630 c3         1 CTF      -0.009300
     27 C21         -7.6430    -0.7790    -0.4400 c1         1 CTF       0.208700
     28 N2          -8.6670    -0.5750    -0.9250 n1         1 CTF      -0.376800
     29 H3           0.8310    -2.1450    -0.4320 ha         1 CTF       0.139000
     30 HN1          5.8910     2.5330     0.0450 hn         1 CTF       0.431800
     31 HN1A         5.7230     2.1350    -1.5830 hn         1 CTF       0.431800
     32 H6           2.9380     2.1410     0.7270 ha         1 CTF       0.147000
     33 H7           2.1020    -3.7910     0.5710 h1         1 CTF       0.044367
     34 H7A          2.5070    -3.5620    -1.1450 h1         1 CTF       0.044367
     35 H7B          3.7090    -4.2350    -0.0290 h1         1 CTF       0.044367
     36 H8          -1.0470    -0.0190    -1.6030 hc         1 CTF       0.058700
     37 H9          -1.6620     1.0470     1.1730 hc         1 CTF       0.057700
     38 H10         -1.0180     2.3850    -1.4780 hc         1 CTF       0.045700
     39 H10A        -1.6430     3.2440    -0.0800 hc         1 CTF       0.045700
     40 H11          0.2630     2.7930     1.2500 hc         1 CTF       0.049200
     41 H11A         0.9070     3.2570    -0.3030 hc         1 CTF       0.049200
     42 H12         -1.1460    -2.2720    -0.6710 hc         1 CTF       0.043700
     43 H12A        -1.4670    -1.6510     0.9280 hc         1 CTF       0.043700
     44 H13         -3.2530    -1.4650    -1.5520 hc         1 CTF       0.042200
     45 H13A        -3.5410    -2.4420    -0.1210 hc         1 CTF       0.042200
     46 H15         -3.2030     0.9360    -1.4340 hc         1 CTF       0.046700
     47 H16         -2.8710    -0.4150     2.1090 hc         1 CTF       0.035700
     48 H16A        -4.4340     0.3770     2.1590 hc         1 CTF       0.035700
     49 H16B        -4.3290    -1.3720     1.9860 hc         1 CTF       0.035700
     50 H17         -5.2540    -0.1750    -1.4610 hc         1 CTF       0.057700
     51 H18         -6.1830     1.8890    -0.7810 hc         1 CTF       0.047700
     52 H18A        -6.0940     1.4950     0.9210 hc         1 CTF       0.047700
     53 H19         -3.9660     2.4340     1.0920 hc         1 CTF       0.045200
     54 H19A        -4.0880     2.9630    -0.5740 hc         1 CTF       0.045200
     55 H20         -6.0730    -2.0660    -0.0450 hc         1 CTF       0.071700
     56 H20A        -6.4570    -0.9330     1.2450 hc         1 CTF       0.071700
@<TRIPOS>BOND
     1     1     4 ar  
     2     1     9 1   
     3     1    11 ar  
     4     2     7 2   
     5     3     7 2   
     6     4     5 ar  
     7     4    12 1   
     8     5     6 ar  
     9     5    29 1   
    10     6    10 ar  
    11     6    14 1   
    12     7     8 1   
    13     7     9 1   
    14     8    30 1   
    15     8    31 1   
    16    10    11 ar  
    17    10    17 1   
    18    11    32 1   
    19    12    13 1   
    20    13    33 1   
    21    13    34 1   
    22    13    35 1   
    23    14    15 1   
    24    14    18 1   
    25    14    36 1   
    26    15    16 1   
    27    15    21 1   
    28    15    37 1   
    29    16    17 1   
    30    16    38 1   
    31    16    39 1   
    32    17    40 1   
    33    17    41 1   
    34    18    19 1   
    35    18    42 1   
    36    18    43 1   
    37    19    20 1   
    38    19    44 1   
    39    19    45 1   
    40    20    21 1   
    41    20    22 1   
    42    20    23 1   
    43    21    25 1   
    44    21    46 1   
    45    22    47 1   
    46    22    48 1   
    47    22    49 1   
    48    23    24 1   
    49    23    26 1   
    50    23    50 1   
    51    24    25 1   
    52    24    51 1   
    53    24    52 1   
    54    25    53 1   
    55    25    54 1   
    56    26    27 1   
    57    26    55 1   
    58    26    56 1   
    59    27    28 3   
@<TRIPOS>SUBSTRUCTURE
     1 CTF         1 TEMP              0 ****  ****    0 ROOT
