@<TRIPOS>MOLECULE
CTH
   16    15     1     0     0
SMALL
No Charge or Current Charge


@<TRIPOS>ATOM
      1 N            1.3390    13.7100     3.3900 n8         1 CTH      -0.871800
      2 CA           2.8460    13.8410     3.5410 c3         1 CTH       0.033500
      3 C            3.7470    12.6110     3.0960 c          1 CTH       0.944600
      4 O            3.2970    11.4700     3.1850 o          1 CTH      -0.830300
      5 OXT          4.8250    12.8430     2.5560 o          1 CTH      -0.830300
      6 CB           3.2710    14.3060     4.9700 c3         1 CTH       0.110100
      7 CG2          2.9330    15.7900     5.2780 c3         1 CTH       0.024000
      8 Cl2          1.1640    16.0860     5.6030 cl         1 CTH      -0.247400
      9 OG1          2.6820    13.4660     5.9760 oh         1 CTH      -0.564800
     10 H            0.8860    14.5040     3.8550 hn         1 CTH       0.331300
     11 H2           1.0310    12.8870     3.9200 hn         1 CTH       0.331300
     12 HA           3.1350    14.6540     2.8610 h1         1 CTH       0.039700
     13 HB           4.3650    14.2220     5.0220 h1         1 CTH       0.060700
     14 HG22         3.4790    16.1140     6.1730 h1         1 CTH       0.048200
     15 HG23         3.2320    16.4320     4.4390 h1         1 CTH       0.048200
     16 HG1          1.7820    13.8170     6.1380 ho         1 CTH       0.374000
@<TRIPOS>BOND
     1     1     2 1   
     2     1    10 1   
     3     1    11 1   
     4     2     3 1   
     5     2     6 1   
     6     2    12 1   
     7     3     4 1   
     8     3     5 1   
     9     6     7 1   
    10     6     9 1   
    11     6    13 1   
    12     7     8 1   
    13     7    14 1   
    14     7    15 1   
    15     9    16 1   
@<TRIPOS>SUBSTRUCTURE
     1 CTH         1 TEMP              0 ****  ****    0 ROOT
