@<TRIPOS>MOLECULE
CTH
   16    15     1     0     0
SMALL
bcc


@<TRIPOS>ATOM
      1 N            1.4370    13.7050     3.1610 n8         1 CTH      -0.871800
      2 CA           2.8380    13.8790     3.4970 c3         1 CTH       0.033500
      3 C            3.6450    12.5710     3.2530 c          1 CTH       0.944600
      4 O            3.0050    11.5290     3.0300 o          1 CTH      -0.830300
      5 OXT          4.8850    12.6910     3.3170 o          1 CTH      -0.830300
      6 CB           3.1620    14.3690     4.9180 c3         1 CTH       0.110100
      7 CG2          2.7410    15.7940     5.2440 c3         1 CTH       0.024000
      8 CL2          0.9680    16.0060     5.5050 cl         1 CTH      -0.247400
      9 OG1          2.6560    13.4350     5.8390 oh         1 CTH      -0.564800
     10 H            0.9000    14.5150     3.4380 hn         1 CTH       0.331300
     11 H2           1.0640    12.9180     3.6730 hn         1 CTH       0.331300
     12 HA           3.2530    14.6400     2.8250 h1         1 CTH       0.039700
     13 HB           4.2610    14.4210     4.9650 h1         1 CTH       0.060700
     14 HG22         3.2100    16.1270     6.1700 h1         1 CTH       0.048200
     15 HG23         3.0370    16.4760     4.4480 h1         1 CTH       0.048200
     16 HG1          2.9520    13.6760     6.7220 ho         1 CTH       0.374000
@<TRIPOS>BOND
     1     1     2 1   
     2     1    10 1   
     3     1    11 1   
     4     2     3 1   
     5     2     6 1   
     6     2    12 1   
     7     3     4 1   
     8     3     5 1   
     9     6     7 1   
    10     6     9 1   
    11     6    13 1   
    12     7     8 1   
    13     7    14 1   
    14     7    15 1   
    15     9    16 1   
@<TRIPOS>SUBSTRUCTURE
     1 CTH         1 TEMP              0 ****  ****    0 ROOT
