@<TRIPOS>MOLECULE
CTI
   44    48     1     0     0
SMALL
No Charge or Current Charge


@<TRIPOS>ATOM
      1 C1           3.0820     0.9170    -0.1930 ca         1 CTI      -0.137000
      2 C2           2.1670    -0.1580    -0.0080 ca         1 CTI      -0.028000
      3 C3           2.6790    -1.4850     0.0340 ca         1 CTI      -0.018000
      4 C4           4.0680    -1.7340    -0.0580 ca         1 CTI      -0.092000
      5 C5           0.7620     0.0530     0.1120 ca         1 CTI      -0.064000
      6 C6          -0.1310    -1.0570     0.1430 ca         1 CTI      -0.001000
      7 C7           0.4170    -2.3630     0.1910 ca         1 CTI      -0.109000
      8 C8           1.8010    -2.5690     0.1580 ca         1 CTI      -0.043000
      9 N9           0.2210     1.3410     0.2470 na         1 CTI       0.064300
     10 C10         -1.5420    -0.8250     0.0620 ca         1 CTI       0.007000
     11 C11         -2.0120     0.4930    -0.1680 ca         1 CTI      -0.105000
     12 C12         -1.0800     1.5490    -0.1860 ca         1 CTI       0.072700
     13 C13          0.7030     2.2260     1.3280 c3         1 CTI       0.014900
     14 C14         -4.3320    -0.3040    -0.3180 ca         1 CTI       0.145100
     15 C15         -3.8630    -1.6090    -0.0580 ca         1 CTI      -0.113000
     16 C16         -2.4960    -1.8670     0.1220 ca         1 CTI      -0.074000
     17 C17         -3.3880     0.7660    -0.3760 ca         1 CTI       0.111100
     18 O18         -3.7220     2.0990    -0.6130 os         1 CTI      -0.350100
     19 C19         -5.0540     2.5910    -0.8520 c3         1 CTI       0.143900
     20 O20         -5.6860    -0.0720    -0.5060 os         1 CTI      -0.310100
     21 C21         -6.6810    -1.1120    -0.4580 c3         1 CTI       0.136900
     22 C22          4.4490     0.6330    -0.2800 ca         1 CTI       0.102100
     23 C23          4.9260    -0.6420    -0.2080 ca         1 CTI       0.095100
     24 O24          5.4360     1.5460    -0.4660 os         1 CTI      -0.331100
     25 C25          6.6540     0.7200    -0.4080 c5         1 CTI       0.372600
     26 O26          6.2760    -0.7010    -0.3360 os         1 CTI      -0.321100
     27 H1           2.7600     1.9480    -0.2940 ha         1 CTI       0.136000
     28 H4           4.4690    -2.7440    -0.0240 ha         1 CTI       0.157000
     29 H7          -0.2030    -3.2500     0.2290 ha         1 CTI       0.139000
     30 H8           2.1890    -3.5850     0.1890 ha         1 CTI       0.143000
     31 H12         -1.3690     2.5820    -0.3740 h4         1 CTI       0.182000
     32 H13          1.0990     3.1540     0.8990 h1         1 CTI       0.091033
     33 H13A        -0.1260     2.4710     2.0050 h1         1 CTI       0.091033
     34 H13B         1.4880     1.7300     1.9100 h1         1 CTI       0.091033
     35 H15         -4.5450    -2.4510     0.0010 ha         1 CTI       0.145000
     36 H16         -2.2150    -2.8960     0.3100 ha         1 CTI       0.142000
     37 H19         -5.4900     2.1280    -1.7460 h1         1 CTI       0.052033
     38 H19A        -5.7060     2.3990     0.0090 h1         1 CTI       0.052033
     39 H19B        -5.0310     3.6760    -1.0160 h1         1 CTI       0.052033
     40 H21         -6.4920    -1.8710    -1.2280 h1         1 CTI       0.059367
     41 H21A        -6.6920    -1.5980     0.5250 h1         1 CTI       0.059367
     42 H21B        -7.6780    -0.6900    -0.6370 h1         1 CTI       0.059367
     43 H25          7.2640     0.8970    -1.3010 h2         1 CTI       0.088200
     44 H25A         7.2220     0.9850     0.4910 h2         1 CTI       0.088200
@<TRIPOS>BOND
     1     1     2 ar  
     2     1    22 ar  
     3     1    27 1   
     4     2     3 ar  
     5     2     5 ar  
     6     3     4 ar  
     7     3     8 ar  
     8     4    23 ar  
     9     4    28 1   
    10     5     6 ar  
    11     5     9 1   
    12     6     7 ar  
    13     6    10 ar  
    14     7     8 ar  
    15     7    29 1   
    16     8    30 1   
    17     9    12 2   
    18     9    13 1   
    19    10    11 ar  
    20    10    16 ar  
    21    11    12 ar  
    22    11    17 ar  
    23    12    31 1   
    24    13    32 1   
    25    13    33 1   
    26    13    34 1   
    27    14    15 ar  
    28    14    17 ar  
    29    14    20 1   
    30    15    16 ar  
    31    15    35 1   
    32    16    36 1   
    33    17    18 1   
    34    18    19 1   
    35    19    37 1   
    36    19    38 1   
    37    19    39 1   
    38    20    21 1   
    39    21    40 1   
    40    21    41 1   
    41    21    42 1   
    42    22    23 ar  
    43    22    24 1   
    44    23    26 1   
    45    24    25 1   
    46    25    26 1   
    47    25    43 1   
    48    25    44 1   
@<TRIPOS>SUBSTRUCTURE
     1 CTI         1 TEMP              0 ****  ****    0 ROOT
