@<TRIPOS>MOLECULE
CTI
   44    48     1     0     0
SMALL
abcg2


@<TRIPOS>ATOM
      1 C1           2.9140     0.9620    -0.1790 ca         1 CTI      -0.137000
      2 C2           2.0310    -0.1220     0.0930 ca         1 CTI      -0.028000
      3 C3           2.5660    -1.4380     0.1170 ca         1 CTI      -0.018000
      4 C4           3.9600    -1.6740     0.0030 ca         1 CTI      -0.092000
      5 C5           0.6130     0.0180     0.2650 ca         1 CTI      -0.064000
      6 C6          -0.2320    -1.0970     0.1700 ca         1 CTI      -0.001000
      7 C7           0.3470    -2.3890     0.1420 ca         1 CTI      -0.109000
      8 C8           1.6920    -2.5500     0.1760 ca         1 CTI      -0.043000
      9 N9           0.0160     1.2490     0.5470 na         1 CTI       0.064300
     10 C10         -1.6550    -0.9250     0.0970 ca         1 CTI       0.007000
     11 C11         -2.1710     0.3860     0.1540 ca         1 CTI      -0.105000
     12 C12         -1.2820     1.4230     0.4590 ca         1 CTI       0.072700
     13 C13          0.7600     2.3750     1.1450 c3         1 CTI       0.014900
     14 C14         -4.4340    -0.4070    -0.1220 ca         1 CTI       0.145100
     15 C15         -3.9180    -1.7140    -0.1710 ca         1 CTI      -0.113000
     16 C16         -2.5710    -1.9700    -0.0650 ca         1 CTI      -0.074000
     17 C17         -3.5510     0.6490     0.0480 ca         1 CTI       0.111100
     18 O18         -3.9960     1.9180     0.1440 os         1 CTI      -0.350100
     19 C19         -4.2240     2.5790    -1.1030 c3         1 CTI       0.143900
     20 O20         -5.7290    -0.1000    -0.2170 os         1 CTI      -0.310100
     21 C21         -6.6820    -1.1480    -0.2940 c3         1 CTI       0.136900
     22 C22          4.2400     0.6930    -0.2960 ca         1 CTI       0.102100
     23 C23          4.7670    -0.6000    -0.1830 ca         1 CTI       0.095100
     24 O24          5.2400     1.5560    -0.5470 os         1 CTI      -0.331100
     25 C25          6.4410     0.7970    -0.6380 c5         1 CTI       0.372600
     26 O26          6.1000    -0.5520    -0.3410 os         1 CTI      -0.321100
     27 H1           2.5710     1.9680    -0.3500 ha         1 CTI       0.136000
     28 H4           4.3440    -2.6850     0.0360 ha         1 CTI       0.157000
     29 H7          -0.2870    -3.2630     0.1160 ha         1 CTI       0.139000
     30 H8           2.1160    -3.5460     0.1940 ha         1 CTI       0.143000
     31 H12         -1.6490     2.4100     0.7030 h4         1 CTI       0.182000
     32 H13          1.0990     3.0670     0.3800 h1         1 CTI       0.091033
     33 H13A         0.0900     2.8970     1.8200 h1         1 CTI       0.091033
     34 H13B         1.5990     1.9990     1.7190 h1         1 CTI       0.091033
     35 H15         -4.5840    -2.5560    -0.3000 ha         1 CTI       0.145000
     36 H16         -2.2460    -2.9970    -0.1200 ha         1 CTI       0.142000
     37 H19         -3.3070     2.6260    -1.6950 h1         1 CTI       0.052033
     38 H19A        -5.0020     2.0830    -1.6860 h1         1 CTI       0.052033
     39 H19B        -4.5470     3.5900    -0.8680 h1         1 CTI       0.052033
     40 H21         -6.5650    -1.7400    -1.2040 h1         1 CTI       0.059367
     41 H21A        -6.6280    -1.8080     0.5750 h1         1 CTI       0.059367
     42 H21B        -7.6570    -0.6690    -0.3120 h1         1 CTI       0.059367
     43 H25          6.8430     0.8620    -1.6520 h2         1 CTI       0.088200
     44 H25A         7.1660     1.1640     0.0900 h2         1 CTI       0.088200
@<TRIPOS>BOND
     1     1     2 ar  
     2     1    22 ar  
     3     1    27 1   
     4     2     3 ar  
     5     2     5 ar  
     6     3     4 ar  
     7     3     8 ar  
     8     4    23 ar  
     9     4    28 1   
    10     5     6 ar  
    11     5     9 1   
    12     6     7 ar  
    13     6    10 ar  
    14     7     8 ar  
    15     7    29 1   
    16     8    30 1   
    17     9    12 2   
    18     9    13 1   
    19    10    11 ar  
    20    10    16 ar  
    21    11    12 ar  
    22    11    17 ar  
    23    12    31 1   
    24    13    32 1   
    25    13    33 1   
    26    13    34 1   
    27    14    15 ar  
    28    14    17 ar  
    29    14    20 1   
    30    15    16 ar  
    31    15    35 1   
    32    16    36 1   
    33    17    18 1   
    34    18    19 1   
    35    19    37 1   
    36    19    38 1   
    37    19    39 1   
    38    20    21 1   
    39    21    40 1   
    40    21    41 1   
    41    21    42 1   
    42    22    23 ar  
    43    22    24 1   
    44    23    26 1   
    45    24    25 1   
    46    25    26 1   
    47    25    43 1   
    48    25    44 1   
@<TRIPOS>SUBSTRUCTURE
     1 CTI         1 TEMP              0 ****  ****    0 ROOT
