@<TRIPOS>MOLECULE
CTJ
   60    62     1     0     0
SMALL
abcg2


@<TRIPOS>ATOM
      1 C            6.4630     5.1110   -17.2920 c          1 CTJ       0.553900
      2 O            6.8170     5.7220   -16.3150 o          1 CTJ      -0.492100
      3 S1           5.3140     1.3470   -18.4340 ss         1 CTJ      -0.372000
      4 C2           3.5370     1.0130   -18.5980 c6         1 CTJ       0.118800
      5 C3           2.7140     1.4160   -17.4020 c2         1 CTJ      -0.372400
      6 C4           3.1020     2.3850   -16.5390 ce         1 CTJ       0.149800
      7 N5           4.2800     3.0800   -16.6550 nu         1 CTJ      -0.798200
      8 C6           5.1370     3.0550   -17.8040 c6         1 CTJ       0.354500
      9 CA           6.5320     3.6000   -17.4290 c3         1 CTJ      -0.003300
     10 N10          7.0740     2.9790   -16.2490 ns         1 CTJ      -0.479900
     11 C11          8.1290     2.1450   -16.2520 c          1 CTJ       0.528800
     12 O12          8.7860     1.8510   -17.2430 o          1 CTJ      -0.591100
     13 C13          8.4620     1.5930   -14.8770 ce         1 CTJ       0.205300
     14 C14          9.4290     2.3190   -14.0640 cc         1 CTJ       0.339700
     15 C15         10.0080     3.4930   -14.4500 cd         1 CTJ      -0.266000
     16 N16          7.9120     0.5250   -14.4310 n2         1 CTJ      -0.161700
     17 S16         11.0800     4.0620   -13.2200 ss         1 CTJ      -0.170400
     18 C17         10.6590     2.6500   -12.2520 cd         1 CTJ       0.700300
     19 O17          7.0550    -0.0370   -15.3570 os         1 CTJ      -0.302000
     20 C18          6.2010    -1.0500   -14.7540 c3         1 CTJ       0.043000
     21 N18         11.2450     2.4240   -11.0490 nv         1 CTJ      -1.051900
     22 C19          5.4520    -1.6450   -15.9410 c3         1 CTJ      -0.080100
     23 N19          9.8030     1.8480   -12.8180 nc         1 CTJ      -0.667000
     24 C20          5.2460    -0.3620   -13.7880 c3         1 CTJ      -0.080100
     25 C21          7.0520    -2.1880   -14.1000 c          1 CTJ       0.716000
     26 O2A          8.1330    -2.4830   -14.6580 o          1 CTJ      -0.714500
     27 O2B          6.5400    -2.7590   -13.1050 o          1 CTJ      -0.714500
     28 C5           1.4100     0.6930   -17.3000 c3         1 CTJ       0.136800
     29 C7           2.3140     2.8760   -15.3010 c          1 CTJ       0.707200
     30 O4A          1.4330     2.1330   -14.8110 o          1 CTJ      -0.692500
     31 O4B          2.6580     4.0050   -14.8770 o          1 CTJ      -0.692500
     32 H            6.0450     5.6230   -18.1770 h4         1 CTJ      -0.015800
     33 H2           3.1620     1.4840   -19.5110 h1         1 CTJ       0.044200
     34 H2A          3.4820    -0.0670   -18.7540 h1         1 CTJ       0.044200
     35 HN5          4.2800     3.9030   -16.0610 hn         1 CTJ       0.528000
     36 H6           4.7400     3.6560   -18.6300 h2         1 CTJ       0.047700
     37 HA           7.2070     3.3990   -18.2660 h1         1 CTJ       0.110700
     38 HN10         6.5980     3.1360   -15.3730 hn         1 CTJ       0.341500
     39 H15          9.8660     4.0490   -15.3610 h4         1 CTJ       0.163000
     40 HN18        11.6520     3.2030   -10.5580 hn         1 CTJ       0.476000
     41 HN1A        10.8000     1.7320   -10.4640 hn         1 CTJ       0.476000
     42 H19          4.8070    -2.4510   -15.5970 hc         1 CTJ       0.027700
     43 H19A         4.8370    -0.8860   -16.4260 hc         1 CTJ       0.027700
     44 H19B         6.1570    -2.0460   -16.6700 hc         1 CTJ       0.027700
     45 H20          4.5290    -1.0750   -13.3890 hc         1 CTJ       0.027700
     46 H20A         5.7890     0.0820   -12.9540 hc         1 CTJ       0.027700
     47 H20B         4.7020     0.4270   -14.3120 hc         1 CTJ       0.027700
     48 H3           0.7140     1.2040   -16.6470 h1         1 CTJ       0.083700
     49 H3'A         0.9650     0.5570   -18.2850 h1         1 CTJ       0.083700
     50 N6           1.5710    -0.6970   -16.7440 na         1 CTJ       0.065300
     51 C26          1.4840    -1.7660   -17.5550 ca         1 CTJ      -0.056000
     52 C25          1.6510    -3.0410   -17.0560 ca         1 CTJ      -0.133000
     53 C24          1.8990    -3.2100   -15.7000 ca         1 CTJ      -0.010000
     54 C23          1.9840    -2.0910   -14.8810 ca         1 CTJ      -0.133000
     55 C22          1.8270    -0.8370   -15.4280 ca         1 CTJ      -0.005300
     56 H26          1.2750    -1.5650   -18.5950 h4         1 CTJ       0.200500
     57 H25          1.5810    -3.8840   -17.7280 ha         1 CTJ       0.161000
     58 H24          2.0290    -4.2020   -15.2880 ha         1 CTJ       0.150000
     59 H23          2.1820    -2.1810   -13.8230 ha         1 CTJ       0.161000
     60 H22          1.8790     0.0900   -14.8710 h4         1 CTJ       0.200500
@<TRIPOS>BOND
     1     1     2 2   
     2     1     9 1   
     3     1    32 1   
     4     3     4 1   
     5     3     8 1   
     6     4     5 1   
     7     4    33 1   
     8     4    34 1   
     9     5     6 2   
    10     5    28 1   
    11     6     7 1   
    12     6    29 1   
    13     7     8 1   
    14     7    35 1   
    15     8     9 1   
    16     8    36 1   
    17     9    10 1   
    18     9    37 1   
    19    10    11 1   
    20    10    38 1   
    21    11    12 2   
    22    11    13 1   
    23    13    14 1   
    24    13    16 2   
    25    14    15 2   
    26    14    23 1   
    27    15    17 1   
    28    15    39 1   
    29    16    19 1   
    30    17    18 1   
    31    18    21 1   
    32    18    23 2   
    33    19    20 1   
    34    20    22 1   
    35    20    24 1   
    36    20    25 1   
    37    21    40 1   
    38    21    41 1   
    39    22    42 1   
    40    22    43 1   
    41    22    44 1   
    42    24    45 1   
    43    24    46 1   
    44    24    47 1   
    45    25    26 1   
    46    25    27 1   
    47    28    48 1   
    48    28    49 1   
    49    28    50 1   
    50    29    30 1   
    51    29    31 1   
    52    50    51 1   
    53    50    55 2   
    54    51    52 ar  
    55    51    56 1   
    56    52    53 ar  
    57    52    57 1   
    58    53    54 ar  
    59    53    58 1   
    60    54    55 ar  
    61    54    59 1   
    62    55    60 1   
@<TRIPOS>SUBSTRUCTURE
     1 CTJ         1 TEMP              0 ****  ****    0 ROOT
