@<TRIPOS>MOLECULE
CTJ
   60    62     1     0     0
SMALL
No Charge or Current Charge


@<TRIPOS>ATOM
      1 C            6.3000     5.1070   -17.4230 c          1 CTJ       0.553900
      2 O            6.1440     5.6960   -16.3560 o          1 CTJ      -0.492100
      3 S1           5.2920     1.2280   -18.5140 ss         1 CTJ      -0.372000
      4 C2           3.5360     0.8540   -18.8270 c6         1 CTJ       0.118800
      5 C3           2.5940     1.2090   -17.6870 c2         1 CTJ      -0.372400
      6 C4           2.8460     2.2810   -16.8700 ce         1 CTJ       0.149800
      7 N5           4.0150     3.0880   -17.0260 nu         1 CTJ      -0.798200
      8 C6           5.0400     2.9840   -18.0690 c6         1 CTJ       0.354500
      9 CA           6.3840     3.5740   -17.5640 c3         1 CTJ      -0.003300
     10 N10          6.8550     2.9230   -16.3100 ns         1 CTJ      -0.479900
     11 C11          8.1470     2.9760   -15.8200 c          1 CTJ       0.528800
     12 O12          8.9910     3.6590   -16.3890 o          1 CTJ      -0.591100
     13 C13          8.4230     2.1820   -14.5600 ce         1 CTJ       0.205300
     14 C14          9.7280     2.3760   -13.9170 cc         1 CTJ       0.339700
     15 C15         10.2950     3.5900   -13.5840 cd         1 CTJ      -0.266000
     16 N16          7.5160     1.4180   -14.0170 n2         1 CTJ      -0.161700
     17 S16         11.8370     3.3750   -12.7710 ss         1 CTJ      -0.170400
     18 C17         11.5520     1.6570   -12.9340 cd         1 CTJ       0.700300
     19 O17          6.9370     0.4700   -14.9040 os         1 CTJ      -0.302000
     20 C18          5.8770    -0.3160   -14.2810 c3         1 CTJ       0.043000
     21 N18         12.3710     0.7050   -12.4750 nv         1 CTJ      -1.051900
     22 C19          5.3690    -1.2440   -15.4110 c3         1 CTJ      -0.080100
     23 N19         10.4530     1.2690   -13.5160 nc         1 CTJ      -0.667000
     24 C20          4.7360     0.6560   -13.8520 c3         1 CTJ      -0.080100
     25 C21          6.3840    -1.2220   -13.0850 c          1 CTJ       0.716000
     26 O2A          7.5750    -1.4980   -12.9960 o          1 CTJ      -0.714500
     27 O2B          5.5700    -1.5820   -12.2410 o          1 CTJ      -0.714500
     28 C5           1.4010     0.2490   -17.6170 c3         1 CTJ       0.136800
     29 C7           1.9420     2.7850   -15.6990 c          1 CTJ       0.707200
     30 O4A          0.8730     2.2440   -15.4480 o          1 CTJ      -0.692500
     31 O4B          2.3330     3.7590   -15.0590 o          1 CTJ      -0.692500
     32 H            6.3900     5.6720   -18.3760 h4         1 CTJ      -0.015800
     33 H2           3.2390     1.4080   -19.7290 h1         1 CTJ       0.044200
     34 H2A          3.4790    -0.2170   -19.0670 h1         1 CTJ       0.044200
     35 HN5          4.0780     3.8560   -16.3510 hn         1 CTJ       0.528000
     36 H6           4.7230     3.5070   -18.9850 h2         1 CTJ       0.047700
     37 HA           7.1290     3.3910   -18.3480 h1         1 CTJ       0.110700
     38 HN10         6.2230     2.2830   -15.8370 hn         1 CTJ       0.341500
     39 H15          9.8970     4.5800   -13.7710 h4         1 CTJ       0.163000
     40 HN18        13.0260     0.9750   -11.7510 hn         1 CTJ       0.476000
     41 HN1A        11.9630    -0.2190   -12.3970 hn         1 CTJ       0.476000
     42 H19          4.6020    -1.9270   -15.0310 hc         1 CTJ       0.027700
     43 H19A         4.9310    -0.6660   -16.2320 hc         1 CTJ       0.027700
     44 H19B         6.1890    -1.8520   -15.8130 hc         1 CTJ       0.027700
     45 H20          3.8230     0.1000   -13.6070 hc         1 CTJ       0.027700
     46 H20A         5.0190     1.2380   -12.9670 hc         1 CTJ       0.027700
     47 H20B         4.4940     1.3540   -14.6620 hc         1 CTJ       0.027700
     48 H3           0.5100     0.7210   -17.1920 h1         1 CTJ       0.083700
     49 H3'A         1.1070    -0.0340   -18.6360 h1         1 CTJ       0.083700
     50 N6           1.6960    -0.9920   -16.8650 na         1 CTJ       0.065300
     51 C26          2.0740    -2.1590   -17.5420 ca         1 CTJ      -0.056000
     52 C25          2.3000    -3.3620   -16.8460 ca         1 CTJ      -0.133000
     53 C24          2.1450    -3.4030   -15.4490 ca         1 CTJ      -0.010000
     54 C23          1.7690    -2.2360   -14.7620 ca         1 CTJ      -0.133000
     55 C22          1.5510    -1.0410   -15.4740 ca         1 CTJ      -0.005300
     56 H26          2.1820    -2.1080   -18.6270 h4         1 CTJ       0.200500
     57 H25          2.5920    -4.2600   -17.3880 ha         1 CTJ       0.161000
     58 H24          2.3170    -4.3300   -14.9050 ha         1 CTJ       0.150000
     59 H23          1.6490    -2.2560   -13.6800 ha         1 CTJ       0.161000
     60 H22          1.2580    -0.1290   -14.9580 h4         1 CTJ       0.200500
@<TRIPOS>BOND
     1     1     2 2   
     2     1     9 1   
     3     1    32 1   
     4     3     4 1   
     5     3     8 1   
     6     4     5 1   
     7     4    33 1   
     8     4    34 1   
     9     5     6 2   
    10     5    28 1   
    11     6     7 1   
    12     6    29 1   
    13     7     8 1   
    14     7    35 1   
    15     8     9 1   
    16     8    36 1   
    17     9    10 1   
    18     9    37 1   
    19    10    11 1   
    20    10    38 1   
    21    11    12 2   
    22    11    13 1   
    23    13    14 1   
    24    13    16 2   
    25    14    15 2   
    26    14    23 1   
    27    15    17 1   
    28    15    39 1   
    29    16    19 1   
    30    17    18 1   
    31    18    21 1   
    32    18    23 2   
    33    19    20 1   
    34    20    22 1   
    35    20    24 1   
    36    20    25 1   
    37    21    40 1   
    38    21    41 1   
    39    22    42 1   
    40    22    43 1   
    41    22    44 1   
    42    24    45 1   
    43    24    46 1   
    44    24    47 1   
    45    25    26 1   
    46    25    27 1   
    47    28    48 1   
    48    28    49 1   
    49    28    50 1   
    50    29    30 1   
    51    29    31 1   
    52    50    51 1   
    53    50    55 2   
    54    51    52 ar  
    55    51    56 1   
    56    52    53 ar  
    57    52    57 1   
    58    53    54 ar  
    59    53    58 1   
    60    54    55 ar  
    61    54    59 1   
    62    55    60 1   
@<TRIPOS>SUBSTRUCTURE
     1 CTJ         1 TEMP              0 ****  ****    0 ROOT
