@<TRIPOS>MOLECULE
CTK
   29    29     1     0     0
SMALL
bcc


@<TRIPOS>ATOM
      1 CAA         -5.2200     0.7890    -0.8900 c3         1 CTK      -0.281300
      2 CAC          2.3550    -0.1130     0.0970 ca         1 CTK      -0.271300
      3 CAD          1.7300     1.1350    -0.0540 ca         1 CTK       0.617200
      4 CAE          3.7360    -0.1750     0.1440 ca         1 CTK      -0.080600
      5 CAG          4.4570     1.0140     0.0370 ca         1 CTK      -0.254300
      6 CAH          3.7500     2.1930    -0.1150 ca         1 CTK       0.392200
      7 CAI          4.4490    -1.5180     0.3040 c          1 CTK       0.923200
      8 CAM         -0.5140     0.1450    -0.2600 c3         1 CTK       0.225800
      9 CAN         -1.9560     0.6230    -0.2120 c3         1 CTK       0.184800
     10 NAF          2.4250     2.2680    -0.1620 nb         1 CTK      -0.775000
     11 NAL          0.3690     1.2700    -0.0780 nu         1 CTK      -0.886900
     12 NAO         -2.8380    -0.5170    -0.4230 n7         1 CTK      -0.806100
     13 OAB         -4.3860     0.0040     1.4690 o          1 CTK      -0.602300
     14 OAJ          3.7230    -2.5230     0.4070 o          1 CTK      -0.819300
     15 OAK          5.6920    -1.4820     0.3180 o          1 CTK      -0.819300
     16 OAQ         -4.9890    -1.7430    -0.2340 o          1 CTK      -0.602300
     17 SAP         -4.4020    -0.4520     0.0870 s6         1 CTK       1.227900
     18 H1          -6.2580     0.8430    -0.5670 h1         1 CTK       0.097367
     19 H2          -4.7380     1.7530    -0.7380 h1         1 CTK       0.097367
     20 H3          -5.1730     0.5070    -1.9400 h1         1 CTK       0.097367
     21 H5           5.5370     1.0210     0.0630 ha         1 CTK       0.153000
     22 H6           4.2800     3.1360    -0.2060 h4         1 CTK      -0.012900
     23 H7          -0.3630    -0.5820     0.5400 h1         1 CTK       0.052200
     24 H8          -0.3260    -0.3760    -1.2090 h1         1 CTK       0.052200
     25 H9          -2.1600     1.0500     0.7690 h1         1 CTK       0.052200
     26 H10         -2.1180     1.4050    -0.9610 h1         1 CTK       0.052200
     27 H11          0.0560     2.1510    -0.4560 hn         1 CTK       0.405800
     28 H12         -2.7600    -0.9370    -1.3430 hn         1 CTK       0.424800
     29 H4           1.7750    -1.0220     0.1740 ha         1 CTK       0.154000
@<TRIPOS>BOND
     1     1    17 1   
     2     1    18 1   
     3     1    19 1   
     4     1    20 1   
     5     2     3 ar  
     6     2     4 ar  
     7     2    29 1   
     8     3    10 ar  
     9     3    11 1   
    10     4     5 ar  
    11     4     7 1   
    12     5     6 ar  
    13     5    21 1   
    14     6    10 ar  
    15     6    22 1   
    16     7    14 1   
    17     7    15 1   
    18     8     9 1   
    19     8    11 1   
    20     8    23 1   
    21     8    24 1   
    22     9    12 1   
    23     9    25 1   
    24     9    26 1   
    25    11    27 1   
    26    12    17 1   
    27    12    28 1   
    28    13    17 2   
    29    16    17 2   
@<TRIPOS>SUBSTRUCTURE
     1 CTK         1 TEMP              0 ****  ****    0 ROOT
