@<TRIPOS>MOLECULE
CTK
   29    29     1     0     0
SMALL
No Charge or Current Charge


@<TRIPOS>ATOM
      1 CAA         -4.9580     0.5930    -1.4360 c3         1 CTK      -0.392100
      2 CAC          2.4360    -0.1830    -0.1310 ca         1 CTK      -0.188000
      3 CAD          1.7470     1.0270     0.0360 ca         1 CTK       0.551900
      4 CAE          3.8500    -0.1780    -0.1190 ca         1 CTK      -0.080600
      5 CAG          4.4700     1.0800     0.0640 ca         1 CTK      -0.171000
      6 CAH          3.6800     2.2320     0.2210 ca         1 CTK       0.326900
      7 CAI          4.6600    -1.4550    -0.2950 c          1 CTK       0.712600
      8 CAM         -0.6120     0.0600     0.0790 c3         1 CTK       0.225800
      9 CAN         -2.0720     0.5940     0.0880 c3         1 CTK       0.184800
     10 NAF          2.3290     2.2120     0.2070 nb         1 CTK      -0.775000
     11 NAL          0.3870     1.1480     0.0390 nu         1 CTK      -0.942100
     12 NAO         -3.0570    -0.5120     0.1220 n7         1 CTK      -0.861300
     13 OAB         -4.8600     0.8620     1.2110 o          1 CTK      -0.531500
     14 OAJ          4.0620    -2.5110    -0.4490 o          1 CTK      -0.714000
     15 OAK          5.8810    -1.3800    -0.2750 o          1 CTK      -0.714000
     16 OAQ         -5.3800    -1.4290     0.2450 o          1 CTK      -0.531500
     17 SAP         -4.6810    -0.1460     0.1630 s6         1 CTK       1.197100
     18 H1          -6.0260     0.8250    -1.5020 h1         1 CTK       0.097367
     19 H2          -4.3600     1.5070    -1.5000 h1         1 CTK       0.097367
     20 H3          -4.6700    -0.1330    -2.2040 h1         1 CTK       0.097367
     21 H5           5.5520     1.1720     0.0860 ha         1 CTK       0.135000
     22 H6           4.1460     3.2070     0.3620 h4         1 CTK      -0.012900
     23 H7          -0.4580    -0.5530     0.9780 h1         1 CTK       0.052200
     24 H8          -0.4820    -0.5930    -0.7950 h1         1 CTK       0.052200
     25 H9          -2.1940     1.2370     0.9710 h1         1 CTK       0.052200
     26 H10         -2.2190     1.2220    -0.8010 h1         1 CTK       0.052200
     27 H11          0.0790     2.0990     0.2220 hn         1 CTK       0.461000
     28 H12         -3.0020    -1.0300    -0.7540 hn         1 CTK       0.480000
     29 H4           1.8870    -1.1080    -0.2690 ha         1 CTK       0.136000
@<TRIPOS>BOND
     1     1    17 1   
     2     1    18 1   
     3     1    19 1   
     4     1    20 1   
     5     2     3 ar  
     6     2     4 ar  
     7     2    29 1   
     8     3    10 ar  
     9     3    11 1   
    10     4     5 ar  
    11     4     7 1   
    12     5     6 ar  
    13     5    21 1   
    14     6    10 ar  
    15     6    22 1   
    16     7    14 1   
    17     7    15 1   
    18     8     9 1   
    19     8    11 1   
    20     8    23 1   
    21     8    24 1   
    22     9    12 1   
    23     9    25 1   
    24     9    26 1   
    25    11    27 1   
    26    12    17 1   
    27    12    28 1   
    28    13    17 2   
    29    16    17 2   
@<TRIPOS>SUBSTRUCTURE
     1 CTK         1 TEMP              0 ****  ****    0 ROOT
