@<TRIPOS>MOLECULE
CTL
   25    26     1     0     0
SMALL
No Charge or Current Charge


@<TRIPOS>ATOM
      1 C1           1.0290    -0.8550     0.3940 c6         1 CTL       0.224600
      2 C2           2.0000     0.3670     0.5760 c6         1 CTL       0.172500
      3 C3           1.6690     1.4770    -0.4470 c6         1 CTL      -0.069400
      4 C4           0.2300     1.9990    -0.2400 c6         1 CTL      -0.034100
      5 C5          -0.8140     0.8870    -0.0800 ca         1 CTL      -0.047300
      6 C10         -2.1770     1.2140    -0.2190 ca         1 CTL      -0.115000
      7 C6          -0.4420    -0.4440     0.2350 ca         1 CTL      -0.127300
      8 C7          -1.4460    -1.4220     0.4040 ca         1 CTL      -0.106000
      9 C8          -2.8020    -1.0850     0.2590 ca         1 CTL      -0.114000
     10 C9          -3.1680     0.2330    -0.0530 ca         1 CTL      -0.100000
     11 O11          1.4140    -1.6450    -0.7440 oh         1 CTL      -0.633000
     12 N12          3.4270    -0.0260     0.4530 n8         1 CTL      -0.977200
     13 H1           1.1060    -1.4760     1.2990 h1         1 CTL       0.028700
     14 H2           1.8680     0.7830     1.5860 h1         1 CTL       0.016700
     15 H31          2.3790     2.3100    -0.3520 hc         1 CTL       0.058700
     16 H32          1.7750     1.0890    -1.4690 hc         1 CTL       0.058700
     17 H41          0.2040     2.6340     0.6560 hc         1 CTL       0.049200
     18 H42         -0.0420     2.6500    -1.0820 hc         1 CTL       0.049200
     19 H10         -2.4700     2.2350    -0.4520 ha         1 CTL       0.112000
     20 H7          -1.1760    -2.4460     0.6520 ha         1 CTL       0.108000
     21 H8          -3.5680    -1.8460     0.3910 ha         1 CTL       0.114000
     22 H9          -4.2180     0.4950    -0.1630 ha         1 CTL       0.113000
     23 H11          0.6410    -2.2100    -0.9520 ho         1 CTL       0.438000
     24 H121         3.6660    -0.6260     1.2490 hn         1 CTL       0.391500
     25 H122         3.4730    -0.6770    -0.3410 hn         1 CTL       0.391500
@<TRIPOS>BOND
     1     1     2 1   
     2     1     7 1   
     3     1    11 1   
     4     1    13 1   
     5     2     3 1   
     6     2    12 1   
     7     2    14 1   
     8     3     4 1   
     9     3    15 1   
    10     3    16 1   
    11     4     5 1   
    12     4    17 1   
    13     4    18 1   
    14     5     6 ar  
    15     5     7 ar  
    16     6    10 ar  
    17     6    19 1   
    18     7     8 ar  
    19     8     9 ar  
    20     8    20 1   
    21     9    10 ar  
    22     9    21 1   
    23    10    22 1   
    24    11    23 1   
    25    12    24 1   
    26    12    25 1   
@<TRIPOS>SUBSTRUCTURE
     1 CTL         1 TEMP              0 ****  ****    0 ROOT
