@<TRIPOS>MOLECULE
CTL
   25    26     1     0     0
SMALL
abcg2


@<TRIPOS>ATOM
      1 C1           0.9800    -0.9380     0.1600 c6         1 CTL       0.224600
      2 C2           1.9280     0.2030     0.5060 c6         1 CTL       0.172500
      3 C3           1.6660     1.3840    -0.4180 c6         1 CTL      -0.069400
      4 C4           0.2690     1.9390    -0.1820 c6         1 CTL      -0.034100
      5 C5          -0.7900     0.8730    -0.0660 ca         1 CTL      -0.047300
      6 C10         -2.1370     1.2290    -0.1280 ca         1 CTL      -0.115000
      7 C6          -0.4570    -0.4640     0.1630 ca         1 CTL      -0.127300
      8 C7          -1.4720    -1.4050     0.3350 ca         1 CTL      -0.106000
      9 C8          -2.8080    -1.0410     0.2740 ca         1 CTL      -0.114000
     10 C9          -3.1400     0.2870     0.0350 ca         1 CTL      -0.100000
     11 O11          1.3330    -1.4560    -1.1090 oh         1 CTL      -0.633000
     12 N12          3.3120    -0.2280     0.4100 n8         1 CTL      -0.977200
     13 H1           1.0850    -1.7210     0.9260 h1         1 CTL       0.028700
     14 H2           1.6540     0.5140     1.5290 h1         1 CTL       0.016700
     15 H31          2.4030     2.1710    -0.2380 hc         1 CTL       0.058700
     16 H32          1.7880     1.0700    -1.4570 hc         1 CTL       0.058700
     17 H41          0.2660     2.5210     0.7460 hc         1 CTL       0.049200
     18 H42          0.0000     2.6450    -0.9720 hc         1 CTL       0.049200
     19 H10         -2.4000     2.2660    -0.3060 ha         1 CTL       0.112000
     20 H7          -1.2090    -2.4390     0.5300 ha         1 CTL       0.108000
     21 H8          -3.5820    -1.7840     0.4110 ha         1 CTL       0.114000
     22 H9          -4.1790     0.5880    -0.0180 ha         1 CTL       0.113000
     23 H11          0.6720    -2.1100    -1.3590 ho         1 CTL       0.438000
     24 H121         3.9080     0.5180     0.7480 hn         1 CTL       0.391500
     25 H122         3.4710    -1.0060     1.0400 hn         1 CTL       0.391500
@<TRIPOS>BOND
     1     1     2 1   
     2     1     7 1   
     3     1    11 1   
     4     1    13 1   
     5     2     3 1   
     6     2    12 1   
     7     2    14 1   
     8     3     4 1   
     9     3    15 1   
    10     3    16 1   
    11     4     5 1   
    12     4    17 1   
    13     4    18 1   
    14     5     6 ar  
    15     5     7 ar  
    16     6    10 ar  
    17     6    19 1   
    18     7     8 ar  
    19     8     9 ar  
    20     8    20 1   
    21     9    10 ar  
    22     9    21 1   
    23    10    22 1   
    24    11    23 1   
    25    12    24 1   
    26    12    25 1   
@<TRIPOS>SUBSTRUCTURE
     1 CTL         1 TEMP              0 ****  ****    0 ROOT
