@<TRIPOS>MOLECULE
CTM
   50    52     1     0     0
SMALL
abcg2


@<TRIPOS>ATOM
      1 N1          -3.0560     0.0960     0.1680 nc         1 CTM      -0.644000
      2 C2          -4.1340     0.7070    -0.2180 cd         1 CTM       0.478900
      3 S3          -3.8340     2.2650    -0.9090 ss         1 CTM      -0.042400
      4 C4          -1.9390     0.8380    -0.0640 cc         1 CTM       0.289300
      5 C5          -2.1570     2.0490    -0.6430 cd         1 CTM      -0.225000
      6 C6           8.0680    -0.5350     0.1700 c          1 CTM       0.698000
      7 C7           4.3820     0.4270     0.8590 ca         1 CTM      -0.070300
      8 C8           5.8330     0.1400     1.1210 c3         1 CTM      -0.024100
      9 C9          -5.4770     0.1450    -0.0910 ca         1 CTM      -0.120500
     10 C10          3.9640     1.6470     0.3010 ca         1 CTM      -0.041300
     11 C11          6.5480    -0.4430    -0.1040 c3         1 CTM       0.036300
     12 C12          2.6170     1.8530     0.0400 ca         1 CTM      -0.153000
     13 C14          3.4210    -0.5350     1.1300 ca         1 CTM      -0.063000
     14 C15         -6.6110     0.8530    -0.4880 ca         1 CTM      -0.077000
     15 C16         -5.6370    -1.1350     0.4430 ca         1 CTM      -0.077000
     16 C17         -0.6230     0.2580     0.3340 c3         1 CTM       0.140300
     17 C18          1.6650     0.8740     0.3210 ca         1 CTM       0.110100
     18 O19          0.3820     1.1900     0.0250 os         1 CTM      -0.361100
     19 C21         -8.0060    -0.9710     0.1730 ca         1 CTM       0.124000
     20 C22          2.0690    -0.3330     0.8750 ca         1 CTM      -0.204000
     21 C23         -7.8750     0.3030    -0.3590 ca         1 CTM      -0.109000
     22 C24         -6.8940    -1.6950     0.5770 ca         1 CTM      -0.109000
     23 CL25        -9.5820    -1.6660     0.3360 cl         1 CTM      -0.207000
     24 O26          5.9400    -1.6720    -0.3960 os         1 CTM      -0.462000
     25 C28          6.1960    -2.1500    -1.6920 c3         1 CTM       0.177600
     26 C29          5.4050    -3.4200    -1.9140 c3         1 CTM      -0.088100
     27 H5          -1.4450     2.8080    -0.9230 h4         1 CTM       0.179000
     28 H8           6.3600     1.0440     1.4270 hc         1 CTM       0.060700
     29 H8A          5.9240    -0.5710     1.9480 hc         1 CTM       0.060700
     30 H11          6.4080     0.2550    -0.9460 h1         1 CTM       0.012700
     31 H12          2.2880     2.7930    -0.3870 ha         1 CTM       0.108000
     32 H14          3.7300    -1.4780     1.5630 ha         1 CTM       0.121000
     33 H15         -6.5280     1.8500    -0.9050 ha         1 CTM       0.132000
     34 H16         -4.7680    -1.6980     0.7550 ha         1 CTM       0.132000
     35 H17         -0.6370     0.0270     1.4070 h1         1 CTM       0.053200
     36 H17A        -0.4670    -0.6900    -0.1960 h1         1 CTM       0.053200
     37 H22          1.3650    -1.1210     1.1090 ha         1 CTM       0.104000
     38 H23         -8.7450     0.8640    -0.6690 ha         1 CTM       0.129500
     39 H24         -7.0050    -2.6870     0.9930 ha         1 CTM       0.129500
     40 H27          5.7570     2.4030    -0.6430 hc         1 CTM       0.045367
     41 H27A         4.4630     3.5860    -0.4890 hc         1 CTM       0.045367
     42 H27B         5.4150     3.1180     0.9160 hc         1 CTM       0.045367
     43 H28          5.9070    -1.3960    -2.4400 h1         1 CTM       0.018200
     44 H28A         7.2650    -2.3460    -1.8390 h1         1 CTM       0.018200
     45 H29          5.6990    -4.1990    -1.2090 hc         1 CTM       0.025033
     46 H29A         4.3340    -3.2450    -1.8040 hc         1 CTM       0.025033
     47 H29B         5.5820    -3.8000    -2.9210 hc         1 CTM       0.025033
     48 O13          8.5620    -1.6610     0.3580 o          1 CTM      -0.724500
     49 C27          4.9470     2.7440     0.0030 c3         1 CTM      -0.049800
     50 O20          8.6590     0.5640     0.2000 o          1 CTM      -0.724500
@<TRIPOS>BOND
     1     1     2 2   
     2     1     4 1   
     3     2     3 1   
     4     2     9 1   
     5     3     5 1   
     6     4     5 2   
     7     4    16 1   
     8     5    27 1   
     9     6    11 1   
    10     6    48 1   
    11     6    50 1   
    12     7     8 1   
    13     7    10 ar  
    14     7    13 ar  
    15     8    11 1   
    16     8    28 1   
    17     8    29 1   
    18     9    14 ar  
    19     9    15 ar  
    20    10    12 ar  
    21    10    49 1   
    22    11    24 1   
    23    11    30 1   
    24    12    17 ar  
    25    12    31 1   
    26    13    20 ar  
    27    13    32 1   
    28    14    21 ar  
    29    14    33 1   
    30    15    22 ar  
    31    15    34 1   
    32    16    18 1   
    33    16    35 1   
    34    16    36 1   
    35    17    18 1   
    36    17    20 ar  
    37    19    21 ar  
    38    19    22 ar  
    39    19    23 1   
    40    20    37 1   
    41    21    38 1   
    42    22    39 1   
    43    24    25 1   
    44    25    26 1   
    45    25    43 1   
    46    25    44 1   
    47    26    45 1   
    48    26    46 1   
    49    26    47 1   
    50    40    49 1   
    51    41    49 1   
    52    42    49 1   
@<TRIPOS>SUBSTRUCTURE
     1 CTM         1 TEMP              0 ****  ****    0 ROOT
