@<TRIPOS>MOLECULE
CTM
   50    52     1     0     0
SMALL
No Charge or Current Charge


@<TRIPOS>ATOM
      1 N1          -3.1890    -0.1470    -0.0770 nc         1 CTM      -0.644000
      2 C2          -4.2560     0.4250    -0.6260 cd         1 CTM       0.478900
      3 S3          -3.9430     1.3730    -2.0820 ss         1 CTM      -0.042400
      4 C4          -2.0570     0.1510    -0.7990 cc         1 CTM       0.289300
      5 C5          -2.2530     0.9430    -1.9030 cd         1 CTM      -0.225000
      6 C6           8.1560    -0.2870     0.6290 c          1 CTM       0.698000
      7 C7           4.2430     0.1570     0.9130 ca         1 CTM      -0.070300
      8 C8           5.7000    -0.0650     1.3360 c3         1 CTM      -0.024100
      9 C9          -5.6160     0.2720    -0.0520 ca         1 CTM      -0.120500
     10 C10          3.7360     1.4450     0.6030 ca         1 CTM      -0.041300
     11 C11          6.6600    -0.2770     0.1380 c3         1 CTM       0.036300
     12 C12          2.3850     1.5830     0.2230 ca         1 CTM      -0.153000
     13 C14          3.3860    -0.9590     0.8320 ca         1 CTM      -0.063000
     14 C15         -6.7390     0.8890    -0.6550 ca         1 CTM      -0.077000
     15 C16         -5.8210    -0.5000     1.1180 ca         1 CTM      -0.077000
     16 C17         -0.7220    -0.4030    -0.3510 c3         1 CTM       0.140300
     17 C18          1.5370     0.4680     0.1450 ca         1 CTM       0.110100
     18 O19          0.2280     0.6780    -0.2350 os         1 CTM      -0.361100
     19 C21         -8.2070    -0.0300     1.0550 ca         1 CTM       0.124000
     20 C22          2.0420    -0.8110     0.4510 ca         1 CTM      -0.204000
     21 C23         -8.0240     0.7380    -0.1040 ca         1 CTM      -0.109000
     22 C24         -7.1080    -0.6490     1.6660 ca         1 CTM      -0.109000
     23 Cl25        -9.8160    -0.2170     1.7410 cl         1 CTM      -0.207000
     24 O26          6.2400    -1.5000    -0.5330 os         1 CTM      -0.462000
     25 C28          6.7800    -1.6900    -1.8530 c3         1 CTM       0.177600
     26 C29          6.2030    -3.0020    -2.4100 c3         1 CTM      -0.088100
     27 H5          -1.5090     1.2960    -2.6060 h4         1 CTM       0.179000
     28 H8           6.0560     0.7810     1.9350 hc         1 CTM       0.060700
     29 H8A          5.7730    -0.9340     2.0000 hc         1 CTM       0.060700
     30 H11          6.5460     0.5760    -0.5450 h1         1 CTM       0.012700
     31 H12          1.9850     2.5650    -0.0140 ha         1 CTM       0.108000
     32 H14          3.7680    -1.9520     1.0610 ha         1 CTM       0.121000
     33 H15         -6.6320     1.4920    -1.5550 ha         1 CTM       0.132000
     34 H16         -4.9840    -0.9910     1.6110 ha         1 CTM       0.132000
     35 H17         -0.8440    -0.9140     0.6130 h1         1 CTM       0.053200
     36 H17A        -0.3830    -1.1390    -1.0910 h1         1 CTM       0.053200
     37 H22          1.4150    -1.6960     0.3990 ha         1 CTM       0.104000
     38 H23         -8.8780     1.2170    -0.5760 ha         1 CTM       0.129500
     39 H24         -7.2510    -1.2440     2.5640 ha         1 CTM       0.129500
     40 H27          5.5180     2.5830     0.0700 hc         1 CTM       0.045367
     41 H27A         4.0840     3.5820     0.3040 hc         1 CTM       0.045367
     42 H27B         4.9140     2.9040     1.7070 hc         1 CTM       0.045367
     43 H28          6.4950    -0.8590    -2.5120 h1         1 CTM       0.018200
     44 H28A         7.8760    -1.7540    -1.8300 h1         1 CTM       0.018200
     45 H29          6.4900    -3.8510    -1.7780 hc         1 CTM       0.025033
     46 H29A         5.1090    -2.9540    -2.4580 hc         1 CTM       0.025033
     47 H29B         6.5830    -3.1830    -3.4220 hc         1 CTM       0.025033
     48 O13          8.7750    -1.3430     0.6820 o          1 CTM      -0.724500
     49 C27          4.6110     2.6940     0.6750 c3         1 CTM      -0.049800
     50 O20          8.6740     0.7910     0.8940 o          1 CTM      -0.724500
@<TRIPOS>BOND
     1     1     2 2   
     2     1     4 1   
     3     2     3 1   
     4     2     9 1   
     5     3     5 1   
     6     4     5 2   
     7     4    16 1   
     8     5    27 1   
     9     6    11 1   
    10     6    48 1   
    11     6    50 1   
    12     7     8 1   
    13     7    10 ar  
    14     7    13 ar  
    15     8    11 1   
    16     8    28 1   
    17     8    29 1   
    18     9    14 ar  
    19     9    15 ar  
    20    10    12 ar  
    21    10    49 1   
    22    11    24 1   
    23    11    30 1   
    24    12    17 ar  
    25    12    31 1   
    26    13    20 ar  
    27    13    32 1   
    28    14    21 ar  
    29    14    33 1   
    30    15    22 ar  
    31    15    34 1   
    32    16    18 1   
    33    16    35 1   
    34    16    36 1   
    35    17    18 1   
    36    17    20 ar  
    37    19    21 ar  
    38    19    22 ar  
    39    19    23 1   
    40    20    37 1   
    41    21    38 1   
    42    22    39 1   
    43    24    25 1   
    44    25    26 1   
    45    25    43 1   
    46    25    44 1   
    47    26    45 1   
    48    26    46 1   
    49    26    47 1   
    50    40    49 1   
    51    41    49 1   
    52    42    49 1   
@<TRIPOS>SUBSTRUCTURE
     1 CTM         1 TEMP              0 ****  ****    0 ROOT
