@<TRIPOS>MOLECULE
CTN
   30    31     1     0     0
SMALL
No Charge or Current Charge


@<TRIPOS>ATOM
      1 O5          -3.7950     2.2880    -0.9550 oh         1 CTN      -0.710000
      2 C5          -3.3220     1.4910     0.1500 c3         1 CTN       0.162600
      3 C4          -2.4460     0.3010    -0.3380 c5         1 CTN       0.175300
      4 O4          -1.1680     0.7710    -0.8150 os         1 CTN      -0.429000
      5 C1          -0.3160    -0.3880    -0.9190 c5         1 CTN       0.327700
      6 N1           1.1010    -0.1290    -0.5370 n          1 CTN      -0.321000
      7 C6           2.1080    -0.7160    -1.2980 cc         1 CTN       0.033600
      8 C7           3.4200    -0.4420    -0.9950 cd         1 CTN      -0.484600
      9 C8           3.6620     0.4290     0.0830 cd         1 CTN       0.788500
     10 N3           2.7430     0.9630     0.8120 nc         1 CTN      -0.777100
     11 C2           1.4220     0.7160     0.5510 c          1 CTN       0.723400
     12 O2           0.5840     1.2080     1.2880 o          1 CTN      -0.567000
     13 N4           4.8960     0.7290     0.4310 nv         1 CTN      -1.034200
     14 C9          -0.8950    -1.4970     0.0430 c5         1 CTN       0.112300
     15 O1          -1.5030    -2.5930    -0.6540 oh         1 CTN      -0.725000
     16 C3          -2.0300    -0.7130     0.7750 c5         1 CTN       0.093300
     17 O3          -3.0870    -1.6140     1.1800 oh         1 CTN      -0.718000
     18 H5          -4.2830     3.0540    -0.5700 ho         1 CTN       0.504000
     19 H5'1        -4.1760     1.0870     0.7100 h1         1 CTN       0.036700
     20 H5'2        -2.7310     2.1030     0.8450 h1         1 CTN       0.036700
     21 H4          -2.9690    -0.2120    -1.1580 h1         1 CTN       0.073700
     22 H1          -0.3150    -0.7490    -1.9550 h2         1 CTN       0.074700
     23 H6           1.7530    -1.3620    -2.0990 h4         1 CTN       0.204000
     24 H7           4.2370    -0.8680    -1.5660 ha         1 CTN       0.204000
     25 HN41         4.9600     1.1240     1.3600 hn         1 CTN       0.502000
     26 HN42         5.6000     0.0430     0.1970 hn         1 CTN       0.502000
     27 H2          -0.1420    -1.8600     0.7570 h1         1 CTN       0.078700
     28 H8          -2.3570    -2.6980    -0.1540 ho         1 CTN       0.528000
     29 H3          -1.6190    -0.1760     1.6430 h1         1 CTN       0.089700
     30 H9          -3.5700    -1.1950     1.9350 ho         1 CTN       0.516000
@<TRIPOS>BOND
     1     1     2 1   
     2     1    18 1   
     3     2     3 1   
     4     2    19 1   
     5     2    20 1   
     6     3     4 1   
     7     3    16 1   
     8     3    21 1   
     9     4     5 1   
    10     5     6 1   
    11     5    14 1   
    12     5    22 1   
    13     6     7 1   
    14     6    11 1   
    15     7     8 2   
    16     7    23 1   
    17     8     9 1   
    18     8    24 1   
    19     9    10 2   
    20     9    13 1   
    21    10    11 1   
    22    11    12 2   
    23    13    25 1   
    24    13    26 1   
    25    14    15 1   
    26    14    16 1   
    27    14    27 1   
    28    15    28 1   
    29    16    17 1   
    30    16    29 1   
    31    17    30 1   
@<TRIPOS>SUBSTRUCTURE
     1 CTN         1 TEMP              0 ****  ****    0 ROOT
