@<TRIPOS>MOLECULE
CTN
   30    31     1     0     0
SMALL
bcc


@<TRIPOS>ATOM
      1 O5          -3.1580     2.4340    -1.0690 oh         1 CTN      -0.587800
      2 C5          -2.9120     1.6270     0.0580 c3         1 CTN       0.139400
      3 C4          -2.4020     0.2820    -0.3950 c5         1 CTN       0.152100
      4 O4          -1.1290     0.4230    -1.0000 os         1 CTN      -0.382600
      5 C1          -0.3440    -0.7150    -0.7820 c5         1 CTN       0.304500
      6 N1           1.0120    -0.3130    -0.4460 n          1 CTN      -0.388000
      7 C6           2.0130    -0.5740    -1.3240 cc         1 CTN       0.083600
      8 C7           3.2830    -0.1950    -1.0880 cd         1 CTN      -0.434600
      9 C8           3.5170     0.5110     0.1320 cd         1 CTN       0.788500
     10 N3           2.5470     0.7770     0.9840 nc         1 CTN      -0.777100
     11 C2           1.2800     0.3870     0.7430 c          1 CTN       0.865900
     12 O2           0.3620     0.6140     1.5180 o          1 CTN      -0.642500
     13 N4           4.7480     0.9240     0.4280 nv         1 CTN      -0.923800
     14 C9          -1.0690    -1.6010     0.2460 c5         1 CTN       0.089100
     15 O1          -1.5980    -2.7060    -0.4430 oh         1 CTN      -0.602800
     16 C3          -2.2060    -0.6980     0.7600 c5         1 CTN       0.070100
     17 O3          -3.3990    -1.4050     0.9920 oh         1 CTN      -0.595800
     18 H5          -3.5170     3.2720    -0.7650 ho         1 CTN       0.405000
     19 H5'1        -3.8250     1.4540     0.6420 h1         1 CTN       0.036700
     20 H5'2        -2.1720     2.0760     0.7340 h1         1 CTN       0.036700
     21 H4          -3.1120    -0.1550    -1.1130 h1         1 CTN       0.073700
     22 H1          -0.2470    -1.2930    -1.7060 h2         1 CTN       0.074700
     23 H6           1.7360    -1.1070    -2.2230 h4         1 CTN       0.154000
     24 H7           4.0720    -0.4110    -1.7920 ha         1 CTN       0.154000
     25 HN41         4.9240     1.4150     1.2880 hn         1 CTN       0.446800
     26 HN42         5.5280     0.7330    -0.1760 hn         1 CTN       0.446800
     27 H2          -0.4030    -1.9280     1.0520 h1         1 CTN       0.078700
     28 H8          -2.4750    -2.8740    -0.0730 ho         1 CTN       0.429000
     29 H3          -1.8780    -0.1690     1.6550 h1         1 CTN       0.089700
     30 H9          -3.4160    -1.6900     1.9110 ho         1 CTN       0.417000
@<TRIPOS>BOND
     1     1     2 1   
     2     1    18 1   
     3     2     3 1   
     4     2    19 1   
     5     2    20 1   
     6     3     4 1   
     7     3    16 1   
     8     3    21 1   
     9     4     5 1   
    10     5     6 1   
    11     5    14 1   
    12     5    22 1   
    13     6     7 1   
    14     6    11 1   
    15     7     8 2   
    16     7    23 1   
    17     8     9 1   
    18     8    24 1   
    19     9    10 2   
    20     9    13 1   
    21    10    11 1   
    22    11    12 2   
    23    13    25 1   
    24    13    26 1   
    25    14    15 1   
    26    14    16 1   
    27    14    27 1   
    28    15    28 1   
    29    16    17 1   
    30    16    29 1   
    31    17    30 1   
@<TRIPOS>SUBSTRUCTURE
     1 CTN         1 TEMP              0 ****  ****    0 ROOT
