@<TRIPOS>MOLECULE
CTS
   28    29     1     0     0
SMALL
No Charge or Current Charge


@<TRIPOS>ATOM
      1 C1           1.7620     0.0600    -0.7040 c6         1 CTS       0.144800
      2 C2           0.7950    -0.4200    -1.8300 c6         1 CTS       0.133300
      3 C3          -0.5760     0.3060    -1.6790 c6         1 CTS       0.135300
      4 C4          -1.1860     0.0480    -0.2670 c6         1 CTS       0.193300
      5 C5          -0.1720     0.5170     0.8300 c5         1 CTS       0.181500
      6 C6          -0.4980     0.1520     2.3230 c5         1 CTS       0.183300
      7 O2           1.3430    -0.1740    -3.1440 oh         1 CTS      -0.728000
      8 O3          -1.4820    -0.1200    -2.7160 oh         1 CTS      -0.668000
      9 O4          -2.4540     0.7320    -0.1730 oh         1 CTS      -0.720000
     10 O6          -1.1730    -1.1050     2.4890 oh         1 CTS      -0.641000
     11 N            1.1470    -0.1440     0.6330 n3         1 CTS      -0.722600
     12 C7           0.9310     0.1010     2.9680 c5         1 CTS      -0.126400
     13 C8           1.9200     0.3460     1.7880 c5         1 CTS       0.176800
     14 H11          1.9940     1.1250    -0.8560 h1         1 CTS       0.038700
     15 H12          2.7080    -0.4970    -0.7710 h1         1 CTS       0.038700
     16 H2           0.6270    -1.5000    -1.6900 h1         1 CTS       0.060700
     17 H3          -0.3930     1.3870    -1.7780 h1         1 CTS       0.046700
     18 H4          -1.3340    -1.0370    -0.1590 h1         1 CTS       0.073700
     19 H5          -0.0650     1.6080     0.7350 h1         1 CTS       0.038700
     20 H6          -1.1010     0.9530     2.7730 h1         1 CTS       0.050700
     21 HO2          2.1760    -0.6980    -3.2140 ho         1 CTS       0.509000
     22 HO3         -0.9100    -0.2210    -3.5130 ho         1 CTS       0.461000
     23 HO4         -2.8500     0.6230    -1.0720 ho         1 CTS       0.522000
     24 HO6         -1.2160    -1.2740     3.4540 ho         1 CTS       0.438000
     25 H71          1.0540     0.8570     3.7510 hc         1 CTS       0.051200
     26 H72          1.1290    -0.8710     3.4350 hc         1 CTS       0.051200
     27 H81          2.1520     1.4160     1.6860 h1         1 CTS       0.037700
     28 H82          2.8660    -0.1960     1.9210 h1         1 CTS       0.037700
@<TRIPOS>BOND
     1     1     2 1   
     2     1    11 1   
     3     1    14 1   
     4     1    15 1   
     5     2     3 1   
     6     2     7 1   
     7     2    16 1   
     8     3     4 1   
     9     3     8 1   
    10     3    17 1   
    11     4     5 1   
    12     4     9 1   
    13     4    18 1   
    14     5     6 1   
    15     5    11 1   
    16     5    19 1   
    17     6    10 1   
    18     6    12 1   
    19     6    20 1   
    20     7    21 1   
    21     8    22 1   
    22     9    23 1   
    23    10    24 1   
    24    11    13 1   
    25    12    13 1   
    26    12    25 1   
    27    12    26 1   
    28    13    27 1   
    29    13    28 1   
@<TRIPOS>SUBSTRUCTURE
     1 CTS         1 TEMP              0 ****  ****    0 ROOT
