@<TRIPOS>MOLECULE
CTS
   28    29     1     0     0
SMALL
abcg2


@<TRIPOS>ATOM
      1 C1           1.7530     0.0870    -0.6490 c6         1 CTS       0.144800
      2 C2           0.8410    -0.3830    -1.7780 c6         1 CTS       0.133300
      3 C3          -0.5240     0.2840    -1.6570 c6         1 CTS       0.135300
      4 C4          -1.1300     0.0210    -0.2820 c6         1 CTS       0.193300
      5 C5          -0.1510     0.4770     0.7850 c5         1 CTS       0.181500
      6 C6          -0.4980     0.1620     2.2340 c5         1 CTS       0.183300
      7 O2           1.3600    -0.0480    -3.0470 oh         1 CTS      -0.728000
      8 O3          -1.4370    -0.1970    -2.6180 oh         1 CTS      -0.668000
      9 O4          -2.3330     0.7280    -0.0970 oh         1 CTS      -0.720000
     10 O6          -1.0160    -1.1470     2.3050 oh         1 CTS      -0.641000
     11 N            1.1240    -0.1900     0.6160 n3         1 CTS      -0.722600
     12 C7           0.8740     0.2980     2.9180 c5         1 CTS      -0.126400
     13 C8           1.9110     0.1380     1.7910 c5         1 CTS       0.176800
     14 H11          1.9720     1.1630    -0.7790 h1         1 CTS       0.038700
     15 H12          2.7080    -0.4440    -0.7040 h1         1 CTS       0.038700
     16 H2           0.7040    -1.4690    -1.6820 h1         1 CTS       0.060700
     17 H3          -0.3820     1.3730    -1.7650 h1         1 CTS       0.046700
     18 H4          -1.2860    -1.0620    -0.1790 h1         1 CTS       0.073700
     19 H5          -0.0410     1.5770     0.7000 h1         1 CTS       0.038700
     20 H6          -1.2140     0.8860     2.6370 h1         1 CTS       0.050700
     21 HO2          2.0900    -0.6420    -3.2450 ho         1 CTS       0.509000
     22 HO3         -1.0990     0.0210    -3.4930 ho         1 CTS       0.461000
     23 HO4         -2.9610     0.4320    -0.7630 ho         1 CTS       0.522000
     24 HO6         -1.1480    -1.3650     3.2320 ho         1 CTS       0.438000
     25 H71          0.9660     1.2790     3.3840 hc         1 CTS       0.051200
     26 H72          0.9940    -0.4420     3.7110 hc         1 CTS       0.051200
     27 H81          2.4650     1.0790     1.6570 h1         1 CTS       0.037700
     28 H82          2.6510    -0.6420     1.9890 h1         1 CTS       0.037700
@<TRIPOS>BOND
     1     1     2 1   
     2     1    11 1   
     3     1    14 1   
     4     1    15 1   
     5     2     3 1   
     6     2     7 1   
     7     2    16 1   
     8     3     4 1   
     9     3     8 1   
    10     3    17 1   
    11     4     5 1   
    12     4     9 1   
    13     4    18 1   
    14     5     6 1   
    15     5    11 1   
    16     5    19 1   
    17     6    10 1   
    18     6    12 1   
    19     6    20 1   
    20     7    21 1   
    21     8    22 1   
    22     9    23 1   
    23    10    24 1   
    24    11    13 1   
    25    12    13 1   
    26    12    25 1   
    27    12    26 1   
    28    13    27 1   
    29    13    28 1   
@<TRIPOS>SUBSTRUCTURE
     1 CTS         1 TEMP              0 ****  ****    0 ROOT
