@<TRIPOS>MOLECULE
CTV
   26    25     1     0     0
SMALL
abcg2


@<TRIPOS>ATOM
      1 C1           2.3500     1.2310     0.5930 c3         1 CTV      -0.059900
      2 N1          -1.4810     2.6570     0.7900 n1         1 CTV      -0.470000
      3 C2           4.0090    -0.3240    -0.5080 c3         1 CTV      -0.059900
      4 C3           2.6300    -0.1400     0.0530 c2         1 CTV      -0.101400
      5 C4           1.7430    -1.1390     0.0470 c2         1 CTV      -0.235200
      6 C5           0.3340    -1.0810     0.5570 c3         1 CTV      -0.031200
      7 C6          -0.6480    -0.6450    -0.5470 c3         1 CTV      -0.054200
      8 C7          -2.0650    -0.6760    -0.0590 c2         1 CTV      -0.044400
      9 C8          -2.6600     0.3870     0.5050 ce         1 CTV      -0.139700
     10 C9          -2.7900    -1.9730    -0.1840 c3         1 CTV      -0.066900
     11 C10         -2.0020     1.6360     0.6540 cg         1 CTV       0.284700
     12 H1           3.0560     1.4860     1.3880 hc         1 CTV       0.041533
     13 H1A          2.4840     1.9800    -0.1910 hc         1 CTV       0.041533
     14 H2           4.7690    -0.1390     0.2560 hc         1 CTV       0.041533
     15 H2A          4.1610    -1.3310    -0.8980 hc         1 CTV       0.041533
     16 H2B          4.2030     0.3870    -1.3160 hc         1 CTV       0.041533
     17 H4           2.0460    -2.0850    -0.3940 ha         1 CTV       0.166000
     18 H5           0.0440    -2.0650     0.9330 hc         1 CTV       0.046700
     19 H5A          0.2470    -0.3910     1.3990 hc         1 CTV       0.046700
     20 H6          -0.3690     0.3530    -0.8900 hc         1 CTV       0.057700
     21 H6A         -0.5490    -1.3170    -1.4030 hc         1 CTV       0.057700
     22 H8          -3.6730     0.3360     0.8850 ha         1 CTV       0.202000
     23 H9          -2.2200    -2.7780     0.2840 hc         1 CTV       0.050033
     24 H9A         -3.7800    -1.9410     0.2670 hc         1 CTV       0.050033
     25 H9B         -2.8950    -2.2390    -1.2380 hc         1 CTV       0.050033
     26 H15          1.3430     1.3480     0.9890 hc         1 CTV       0.041533
@<TRIPOS>BOND
     1     1     4 1   
     2     1    12 1   
     3     1    13 1   
     4     1    26 1   
     5     2    11 3   
     6     3     4 1   
     7     3    14 1   
     8     3    15 1   
     9     3    16 1   
    10     4     5 2   
    11     5     6 1   
    12     5    17 1   
    13     6     7 1   
    14     6    18 1   
    15     6    19 1   
    16     7     8 1   
    17     7    20 1   
    18     7    21 1   
    19     8     9 2   
    20     8    10 1   
    21     9    11 1   
    22     9    22 1   
    23    10    23 1   
    24    10    24 1   
    25    10    25 1   
@<TRIPOS>SUBSTRUCTURE
     1 CTV         1 TEMP              0 ****  ****    0 ROOT
