@<TRIPOS>MOLECULE
CTV
   26    25     1     0     0
SMALL
No Charge or Current Charge


@<TRIPOS>ATOM
      1 C1           2.3640     1.2780     0.5020 c3         1 CTV      -0.059900
      2 N1          -1.5220     2.7080     0.9910 n1         1 CTV      -0.470000
      3 C2           4.0700    -0.2990    -0.4830 c3         1 CTV      -0.059900
      4 C3           2.6510    -0.1400     0.0310 c2         1 CTV      -0.101400
      5 C4           1.7720    -1.1610     0.0490 c2         1 CTV      -0.235200
      6 C5           0.3420    -1.1390     0.5570 c3         1 CTV      -0.031200
      7 C6          -0.6570    -0.7080    -0.5370 c3         1 CTV      -0.054200
      8 C7          -2.0950    -0.6550    -0.0280 c2         1 CTV      -0.044400
      9 C8          -2.6720     0.4220     0.5610 ce         1 CTV      -0.139700
     10 C9          -2.8360    -1.9650    -0.2330 c3         1 CTV      -0.066900
     11 C10         -2.0170     1.6710     0.7920 cg         1 CTV       0.284700
     12 H1           3.0100     1.5490     1.3460 hc         1 CTV       0.041533
     13 H1A          2.5470     2.0010    -0.3010 hc         1 CTV       0.041533
     14 H2           4.8020    -0.0620     0.2980 hc         1 CTV       0.041533
     15 H2A          4.2690    -1.3240    -0.8190 hc         1 CTV       0.041533
     16 H2B          4.2590     0.3670    -1.3330 hc         1 CTV       0.041533
     17 H4           2.0810    -2.1420    -0.3180 ha         1 CTV       0.166000
     18 H5           0.0670    -2.1360     0.9240 hc         1 CTV       0.046700
     19 H5A          0.2450    -0.4690     1.4190 hc         1 CTV       0.046700
     20 H6          -0.3530     0.2710    -0.9260 hc         1 CTV       0.057700
     21 H6A         -0.5740    -1.3960    -1.3870 hc         1 CTV       0.057700
     22 H8          -3.7040     0.3790     0.9030 ha         1 CTV       0.202000
     23 H9          -2.3210    -2.7950     0.2660 hc         1 CTV       0.050033
     24 H9A         -3.8540    -1.9230     0.1700 hc         1 CTV       0.050033
     25 H9B         -2.9150    -2.2120    -1.2980 hc         1 CTV       0.050033
     26 H15          1.3280     1.4190     0.8260 hc         1 CTV       0.041533
@<TRIPOS>BOND
     1     1     4 1   
     2     1    12 1   
     3     1    13 1   
     4     1    26 1   
     5     2    11 3   
     6     3     4 1   
     7     3    14 1   
     8     3    15 1   
     9     3    16 1   
    10     4     5 2   
    11     5     6 1   
    12     5    17 1   
    13     6     7 1   
    14     6    18 1   
    15     6    19 1   
    16     7     8 1   
    17     7    20 1   
    18     7    21 1   
    19     8     9 2   
    20     8    10 1   
    21     9    11 1   
    22     9    22 1   
    23    10    23 1   
    24    10    24 1   
    25    10    25 1   
@<TRIPOS>SUBSTRUCTURE
     1 CTV         1 TEMP              0 ****  ****    0 ROOT
