@<TRIPOS>MOLECULE
CTW
   64    64     1     0     0
SMALL
bcc


@<TRIPOS>ATOM
      1 CBH         28.0480    51.4620    44.6310 c          1 CTW       0.655700
      2 OAF         28.1320    50.2870    44.2920 o          1 CTW      -0.635100
      3 CBJ         28.9870    52.0250    45.6560 ca         1 CTW      -0.120600
      4 CAP         30.1920    51.3610    45.8780 ca         1 CTW      -0.066000
      5 CAN         31.1110    51.8350    46.8000 ca         1 CTW      -0.195000
      6 CBI         30.8000    52.9760    47.5160 ca         1 CTW       0.108900
      7 FAM         31.6820    53.4420    48.4110 f          1 CTW      -0.175900
      8 CAO         29.6070    53.6490    47.3400 ca         1 CTW      -0.195000
      9 CAQ         28.7040    53.1660    46.4050 ca         1 CTW      -0.066000
     10 NAZ         27.1520    52.3220    44.1290 ns         1 CTW      -0.502900
     11 CBL         26.2930    52.0550    42.9960 c3         1 CTW      -0.055300
     12 CBE         26.2470    53.3210    42.0930 c          1 CTW       0.924600
     13 OAC         25.6600    53.1810    41.0080 o          1 CTW      -0.839300
     14 CAX         24.8680    51.6800    43.4140 c3         1 CTW      -0.059400
     15 CAU         24.7620    50.3690    44.1880 c3         1 CTW      -0.160400
     16 CBG         23.3280    50.0840    44.5870 c          1 CTW       0.659100
     17 OAE         22.6750    50.8860    45.2470 o          1 CTW      -0.645100
     18 OAJ         26.7790    54.3540    42.5450 o          1 CTW      -0.839300
     19 PBN         17.5260    43.7950    42.4670 p5         1 CTW       1.353700
     20 OAL         18.5550    43.0860    41.6240 o          1 CTW      -0.864500
     21 OAG         16.5880    42.9830    43.3150 o          1 CTW      -0.864500
     22 OBB         18.2990    44.8350    43.4950 os         1 CTW      -0.576200
     23 CAS         19.5370    45.4110    43.1270 c3         1 CTW       0.209400
     24 CB          21.2070    47.1700    43.7770 c3         1 CTW      -0.066400
     25 CA          21.4910    48.4730    44.5270 c3         1 CTW      -0.032300
     26 C           21.3380    48.2570    46.0560 c          1 CTW       0.940600
     27 OXT         20.2370    48.5750    46.5450 o          1 CTW      -0.850300
     28 O           22.3080    47.7400    46.6410 o          1 CTW      -0.850300
     29 N           22.8190    48.9210    44.1620 ns         1 CTW      -0.520900
     30 NBA         16.6200    44.9380    41.5820 n7         1 CTW      -0.872300
     31 CBM         15.8220    44.4250    40.4720 c3         1 CTW       0.085500
     32 CBF         16.4720    44.7070    39.0940 c          1 CTW       0.921600
     33 OAK         15.9800    44.1000    38.1210 o          1 CTW      -0.880800
     34 CAW         14.3990    45.0060    40.4990 c3         1 CTW      -0.020400
     35 CAT         14.3460    46.5190    40.3510 c3         1 CTW      -0.185400
     36 CBC         12.9430    47.1530    40.4310 c          1 CTW       0.920600
     37 OAA         11.9600    46.4240    40.1820 o          1 CTW      -0.903300
     38 OAH         12.9060    48.3700    40.7110 o          1 CTW      -0.903300
     39 OAD         17.4010    45.5410    39.0620 o          1 CTW      -0.880800
     40 H26         30.4240    50.4660    45.3170 ha         1 CTW       0.157500
     41 H27         32.0510    51.3240    46.9590 ha         1 CTW       0.129000
     42 H28         29.3800    54.5300    47.9250 ha         1 CTW       0.129000
     43 H29         27.7630    53.6880    46.2920 ha         1 CTW       0.157500
     44 H25         27.2930    53.3150    44.2670 hn         1 CTW       0.327500
     45 H23         26.7190    51.2310    42.4170 h1         1 CTW       0.056700
     46 H21         24.4480    52.4940    44.0120 hc         1 CTW       0.060200
     47 H22         24.2650    51.6100    42.5070 hc         1 CTW       0.060200
     48 H19         25.1780    49.5530    43.5930 hc         1 CTW       0.041700
     49 H20         25.3510    50.4230    45.1070 hc         1 CTW       0.041700
     50 H10         19.5380    45.7390    42.0800 h1         1 CTW       0.001200
     51 H11         20.3490    44.6790    43.2250 h1         1 CTW       0.001200
     52 H12         19.7160    46.2920    45.0660 hc         1 CTW       0.058200
     53 H13         19.0600    47.3740    43.8490 hc         1 CTW       0.058200
     54 H14         21.3390    47.3480    42.7040 hc         1 CTW       0.012700
     55 H15         21.9590    46.4250    44.0590 hc         1 CTW       0.012700
     56 H16         20.7640    49.2230    44.2020 h1         1 CTW       0.058700
     57 H18         23.4230    48.2850    43.6660 hn         1 CTW       0.288500
     58 H8          17.2170    45.6640    41.1940 hn         1 CTW       0.379800
     59 H6          15.7160    43.3380    40.5660 h1         1 CTW       0.008700
     60 H4          13.9330    44.7150    41.4460 hc         1 CTW       0.009700
     61 H5          13.8100    44.5340    39.7110 hc         1 CTW       0.009700
     62 H2          14.7760    46.8100    39.3850 hc         1 CTW       0.035700
     63 H3          14.9860    46.9870    41.1040 hc         1 CTW       0.035700
     64 CAR         19.8150    46.6020    44.0240 c3         1 CTW      -0.083400
@<TRIPOS>BOND
     1     1     2 2   
     2     1     3 1   
     3     1    10 1   
     4     3     4 ar  
     5     3     9 ar  
     6     4     5 ar  
     7     4    40 1   
     8     5     6 ar  
     9     5    41 1   
    10     6     7 1   
    11     6     8 ar  
    12     8     9 ar  
    13     8    42 1   
    14     9    43 1   
    15    10    11 1   
    16    10    44 1   
    17    11    12 1   
    18    11    14 1   
    19    11    45 1   
    20    12    13 1   
    21    12    18 1   
    22    14    15 1   
    23    14    46 1   
    24    14    47 1   
    25    15    16 1   
    26    15    48 1   
    27    15    49 1   
    28    16    17 2   
    29    16    29 1   
    30    19    20 1   
    31    19    21 1   
    32    19    22 1   
    33    19    30 1   
    34    22    23 1   
    35    23    50 1   
    36    23    51 1   
    37    23    64 1   
    38    24    25 1   
    39    24    54 1   
    40    24    55 1   
    41    24    64 1   
    42    25    26 1   
    43    25    29 1   
    44    25    56 1   
    45    26    27 1   
    46    26    28 1   
    47    29    57 1   
    48    30    31 1   
    49    30    58 1   
    50    31    32 1   
    51    31    34 1   
    52    31    59 1   
    53    32    33 1   
    54    32    39 1   
    55    34    35 1   
    56    34    60 1   
    57    34    61 1   
    58    35    36 1   
    59    35    62 1   
    60    35    63 1   
    61    36    37 1   
    62    36    38 1   
    63    52    64 1   
    64    53    64 1   
@<TRIPOS>SUBSTRUCTURE
     1 CTW         1 TEMP              0 ****  ****    0 ROOT
