@<TRIPOS>MOLECULE
CTW
   64    64     1     0     0
SMALL
No Charge or Current Charge


@<TRIPOS>ATOM
      1 CBH         27.9200    51.6190    44.4690 c          1 CTW       0.588700
      2 OAF         28.2860    50.4930    44.1540 o          1 CTW      -0.635100
      3 CBJ         28.6610    52.4400    45.5080 ca         1 CTW      -0.120600
      4 CAP         29.8170    51.8990    46.1200 ca         1 CTW      -0.048000
      5 CAN         30.5280    52.6310    47.0870 ca         1 CTW      -0.177000
      6 CBI         30.0930    53.9100    47.4550 ca         1 CTW       0.144000
      7 FAM         30.7770    54.6120    48.3840 f          1 CTW      -0.211000
      8 CAO         28.9510    54.4640    46.8630 ca         1 CTW      -0.177000
      9 CAQ         28.2350    53.7370    45.8940 ca         1 CTW      -0.048000
     10 NAZ         26.8120    52.2050    43.8900 ns         1 CTW      -0.435900
     11 CBL         25.9270    51.5780    42.8760 c3         1 CTW      -0.055300
     12 CBE         25.5180    52.6320    41.8010 c          1 CTW       0.714000
     13 OAC         25.6750    52.3460    40.6230 o          1 CTW      -0.734000
     14 CAX         24.6770    50.9190    43.5160 c3         1 CTW      -0.059400
     15 CAU         24.9910    49.7680    44.5040 c3         1 CTW      -0.160400
     16 CBG         23.7080    49.0980    45.0120 c          1 CTW       0.592100
     17 OAE         22.9700    49.6290    45.8320 o          1 CTW      -0.645100
     18 OAJ         25.1510    53.7370    42.1790 o          1 CTW      -0.734000
     19 PBN         16.7720    45.1900    43.5990 p5         1 CTW       1.353700
     20 OAL         17.8340    44.1780    43.3750 o          1 CTW      -0.864500
     21 OAG         15.6080    44.6700    44.3680 o          1 CTW      -0.864500
     22 OBB         17.3300    46.5870    44.1690 os         1 CTW      -0.599400
     23 CAS         18.5120    47.2130    43.6510 c3         1 CTW       0.232600
     24 CB          21.0500    47.4340    44.0200 c3         1 CTW      -0.066400
     25 CA          22.3000    46.9890    44.8250 c3         1 CTW      -0.032300
     26 C           22.6520    45.4810    44.6140 c          1 CTW       0.730000
     27 OXT         22.5310    44.7220    45.5660 o          1 CTW      -0.745000
     28 O           23.1550    45.1400    43.5510 o          1 CTW      -0.745000
     29 N           23.4730    47.8380    44.5060 ns         1 CTW      -0.453900
     30 NBA         16.2400    45.7430    42.1550 n7         1 CTW      -0.927500
     31 CBM         15.5450    44.8650    41.1580 c3         1 CTW       0.085500
     32 CBF         16.4660    43.7730    40.4630 c          1 CTW       0.711000
     33 OAK         16.0430    42.6270    40.3670 o          1 CTW      -0.775500
     34 CAW         14.7860    45.7290    40.1070 c3         1 CTW      -0.020400
     35 CAT         15.6540    46.6680    39.2250 c3         1 CTW      -0.185400
     36 CBC         14.7580    47.4550    38.2530 c          1 CTW       0.710000
     37 OAA         14.5020    46.9570    37.1670 o          1 CTW      -0.798000
     38 OAH         14.3040    48.5290    38.6170 o          1 CTW      -0.798000
     39 OAD         17.5860    44.0940    40.0790 o          1 CTW      -0.775500
     40 H26         30.1690    50.9060    45.8460 ha         1 CTW       0.139500
     41 H27         31.4150    52.2050    47.5500 ha         1 CTW       0.111000
     42 H28         28.6190    55.4570    47.1540 ha         1 CTW       0.111000
     43 H29         27.3520    54.1980    45.4580 ha         1 CTW       0.139500
     44 H25         26.5940    53.1520    44.1730 hn         1 CTW       0.327500
     45 H23         26.4960    50.8000    42.3520 h1         1 CTW       0.056700
     46 H21         24.0860    51.6870    44.0300 hc         1 CTW       0.060200
     47 H22         24.0420    50.5260    42.7110 hc         1 CTW       0.060200
     48 H19         25.6190    49.0320    43.9890 hc         1 CTW       0.041700
     49 H20         25.5310    50.1800    45.3640 hc         1 CTW       0.041700
     50 H10         18.4440    48.3000    43.7920 h1         1 CTW       0.001200
     51 H11         18.6250    47.0220    42.5760 h1         1 CTW       0.001200
     52 H12         19.8820    45.6140    44.1960 hc         1 CTW       0.058200
     53 H13         19.5860    46.7860    45.4820 hc         1 CTW       0.058200
     54 H14         20.8880    48.5070    44.1790 hc         1 CTW       0.012700
     55 H15         21.2410    47.3000    42.9480 hc         1 CTW       0.012700
     56 H16         22.0800    47.1160    45.8930 h1         1 CTW       0.058700
     57 H18         24.1520    47.4780    43.8460 hn         1 CTW       0.288500
     58 H8          17.1620    45.9160    41.7680 hn         1 CTW       0.435000
     59 H6          14.7640    44.3090    41.6940 h1         1 CTW       0.008700
     60 H4          14.0360    46.3350    40.6310 hc         1 CTW       0.009700
     61 H5          14.2230    45.0530    39.4510 hc         1 CTW       0.009700
     62 H2          16.3340    46.0200    38.6610 hc         1 CTW       0.035700
     63 H3          16.1620    47.3570    39.9100 hc         1 CTW       0.035700
     64 CAR         19.7540    46.6810    44.4030 c3         1 CTW      -0.083400
@<TRIPOS>BOND
     1     1     2 2   
     2     1     3 1   
     3     1    10 1   
     4     3     4 ar  
     5     3     9 ar  
     6     4     5 ar  
     7     4    40 1   
     8     5     6 ar  
     9     5    41 1   
    10     6     7 1   
    11     6     8 ar  
    12     8     9 ar  
    13     8    42 1   
    14     9    43 1   
    15    10    11 1   
    16    10    44 1   
    17    11    12 1   
    18    11    14 1   
    19    11    45 1   
    20    12    13 1   
    21    12    18 1   
    22    14    15 1   
    23    14    46 1   
    24    14    47 1   
    25    15    16 1   
    26    15    48 1   
    27    15    49 1   
    28    16    17 2   
    29    16    29 1   
    30    19    20 1   
    31    19    21 1   
    32    19    22 1   
    33    19    30 1   
    34    22    23 1   
    35    23    50 1   
    36    23    51 1   
    37    23    64 1   
    38    24    25 1   
    39    24    54 1   
    40    24    55 1   
    41    24    64 1   
    42    25    26 1   
    43    25    29 1   
    44    25    56 1   
    45    26    27 1   
    46    26    28 1   
    47    29    57 1   
    48    30    31 1   
    49    30    58 1   
    50    31    32 1   
    51    31    34 1   
    52    31    59 1   
    53    32    33 1   
    54    32    39 1   
    55    34    35 1   
    56    34    60 1   
    57    34    61 1   
    58    35    36 1   
    59    35    62 1   
    60    35    63 1   
    61    36    37 1   
    62    36    38 1   
    63    52    64 1   
    64    53    64 1   
@<TRIPOS>SUBSTRUCTURE
     1 CTW         1 TEMP              0 ****  ****    0 ROOT
