@<TRIPOS>MOLECULE
CTX
   57    59     1     0     0
SMALL
abcg2


@<TRIPOS>ATOM
      1 CA          -4.6100    -0.5680     1.7810 c3         1 CTX      -0.086100
      2 CB          -4.2700    -0.9690     0.3450 c3         1 CTX      -0.037200
      3 CA1          4.3890    -0.2860     0.5220 c3         1 CTX       0.166600
      4 CB1          5.8270    -0.0500     0.1170 c3         1 CTX       0.165800
      5 C1           2.2160     0.3220    -0.2330 ca         1 CTX       0.148100
      6 C2           1.4420     1.0190    -1.1640 ca         1 CTX      -0.179000
      7 C3           0.0630     0.9680    -1.1010 ca         1 CTX      -0.055500
      8 C5           0.1890    -0.4600     0.8040 ca         1 CTX      -0.055500
      9 C6           1.5760    -0.4130     0.7640 ca         1 CTX      -0.179000
     10 C4          -0.5950     0.2100    -0.1290 ca         1 CTX      -0.094800
     11 C7          -2.0750     0.1640    -0.0820 ce         1 CTX       0.002600
     12 C8          -2.7380     1.4890    -0.1940 ca         1 CTX      -0.048800
     13 C9          -2.5060     2.4770     0.7630 ca         1 CTX      -0.099000
     14 C10         -3.0990     3.7260     0.6510 ca         1 CTX      -0.112500
     15 C11         -3.9230     4.0130    -0.4310 ca         1 CTX      -0.110000
     16 C12         -4.1450     3.0430    -1.4000 ca         1 CTX      -0.112500
     17 C13         -3.5570     1.7920    -1.2800 ca         1 CTX      -0.099000
     18 C14         -1.7770    -4.5240     0.9230 ca         1 CTX      -0.114000
     19 C15         -0.9630    -4.8500    -0.1530 ca         1 CTX      -0.110000
     20 C16         -0.7440    -3.9090    -1.1530 ca         1 CTX      -0.114000
     21 C17         -1.3230    -2.6530    -1.0670 ca         1 CTX      -0.097000
     22 C18         -2.1330    -2.3070     0.0170 ca         1 CTX      -0.050800
     23 C19         -2.3640    -3.2690     1.0020 ca         1 CTX      -0.097000
     24 C20         -2.7790    -0.9740     0.0750 cf         1 CTX      -0.044400
     25 NI           6.2340     1.3400     0.1550 n3         1 CTX      -0.700600
     26 C21          6.2940     1.8670     1.5000 c3         1 CTX       0.149600
     27 C22          7.4970     1.5260    -0.5260 c3         1 CTX       0.149600
     28 HA1         -4.2750     0.4480     1.9900 hc         1 CTX       0.034367
     29 HA2         -5.6880    -0.6070     1.9460 hc         1 CTX       0.034367
     30 HA3         -4.1390    -1.2280     2.5090 hc         1 CTX       0.034367
     31 HB1         -4.6760    -1.9610     0.1370 hc         1 CTX       0.049200
     32 HB2         -4.7800    -0.2890    -0.3380 hc         1 CTX       0.049200
     33 HA11         4.2070     0.0280     1.5560 h1         1 CTX       0.034200
     34 HA12         4.1860    -1.3610     0.4720 h1         1 CTX       0.034200
     35 HB11         6.4550    -0.6880     0.7630 h1         1 CTX       0.040700
     36 HB12         5.9630    -0.4190    -0.9030 h1         1 CTX       0.040700
     37 H2           1.9330     1.5970    -1.9370 ha         1 CTX       0.121500
     38 H3          -0.5150     1.5160    -1.8350 ha         1 CTX       0.117000
     39 H5          -0.2880    -1.0300     1.5900 ha         1 CTX       0.117000
     40 H6           2.1350    -0.9490     1.5180 ha         1 CTX       0.121500
     41 H9          -1.8570     2.2620     1.6040 ha         1 CTX       0.116000
     42 H10         -2.9160     4.4790     1.4070 ha         1 CTX       0.112000
     43 H11         -4.3820     4.9890    -0.5220 ha         1 CTX       0.111000
     44 H12         -4.7740     3.2620    -2.2540 ha         1 CTX       0.112000
     45 H13         -3.7230     1.0410    -2.0440 ha         1 CTX       0.116000
     46 H14         -1.9610    -5.2510     1.7040 ha         1 CTX       0.111000
     47 H15         -0.5090    -5.8300    -0.2170 ha         1 CTX       0.110000
     48 H16         -0.1250    -4.1570    -2.0060 ha         1 CTX       0.111000
     49 H17         -1.1550    -1.9290    -1.8540 ha         1 CTX       0.116000
     50 H19         -2.9970    -3.0370     1.8490 ha         1 CTX       0.116000
     51 H211         6.5980     2.9150     1.4700 h1         1 CTX       0.030533
     52 H212         5.3180     1.8310     1.9850 h1         1 CTX       0.030533
     53 H213         7.0090     1.3300     2.1440 h1         1 CTX       0.030533
     54 H221         7.4210     1.1850    -1.5600 h1         1 CTX       0.030533
     55 H222         7.7560     2.5860    -0.5430 h1         1 CTX       0.030533
     56 H223         8.3330     0.9870    -0.0550 h1         1 CTX       0.030533
     57 OL           3.5500     0.4270    -0.3690 os         1 CTX      -0.328100
@<TRIPOS>BOND
     1     1     2 1   
     2     1    28 1   
     3     1    29 1   
     4     1    30 1   
     5     2    24 1   
     6     2    31 1   
     7     2    32 1   
     8     3     4 1   
     9     3    33 1   
    10     3    34 1   
    11     3    57 1   
    12     4    25 1   
    13     4    35 1   
    14     4    36 1   
    15     5     6 ar  
    16     5     9 ar  
    17     5    57 1   
    18     6     7 ar  
    19     6    37 1   
    20     7    10 ar  
    21     7    38 1   
    22     8     9 ar  
    23     8    10 ar  
    24     8    39 1   
    25     9    40 1   
    26    10    11 1   
    27    11    12 1   
    28    11    24 2   
    29    12    13 ar  
    30    12    17 ar  
    31    13    14 ar  
    32    13    41 1   
    33    14    15 ar  
    34    14    42 1   
    35    15    16 ar  
    36    15    43 1   
    37    16    17 ar  
    38    16    44 1   
    39    17    45 1   
    40    18    19 ar  
    41    18    23 ar  
    42    18    46 1   
    43    19    20 ar  
    44    19    47 1   
    45    20    21 ar  
    46    20    48 1   
    47    21    22 ar  
    48    21    49 1   
    49    22    23 ar  
    50    22    24 1   
    51    23    50 1   
    52    25    26 1   
    53    25    27 1   
    54    26    51 1   
    55    26    52 1   
    56    26    53 1   
    57    27    54 1   
    58    27    55 1   
    59    27    56 1   
@<TRIPOS>SUBSTRUCTURE
     1 CTX         1 TEMP              0 ****  ****    0 ROOT
