@<TRIPOS>MOLECULE
CTX
   57    59     1     0     0
SMALL
No Charge or Current Charge


@<TRIPOS>ATOM
      1 CA          -4.8210    -0.5410     1.6120 c3         1 CTX      -0.086100
      2 CB          -4.3290    -1.0200     0.2310 c3         1 CTX      -0.037200
      3 CA1          4.4960    -0.2940     0.4720 c3         1 CTX       0.166600
      4 CB1          5.9630     0.0090     0.0580 c3         1 CTX       0.165800
      5 C1           2.2290     0.2940    -0.3130 ca         1 CTX       0.148100
      6 C2           1.4420     0.9900    -1.2420 ca         1 CTX      -0.179000
      7 C3           0.0400     0.9380    -1.1710 ca         1 CTX      -0.055500
      8 C5           0.1980    -0.5130     0.7720 ca         1 CTX      -0.055500
      9 C6           1.6010    -0.4610     0.7010 ca         1 CTX      -0.179000
     10 C4          -0.5940     0.1790    -0.1670 ca         1 CTX      -0.094800
     11 C7          -2.0860     0.1260    -0.0890 ce         1 CTX       0.002600
     12 C8          -2.6950     1.4870    -0.1410 ca         1 CTX      -0.048800
     13 C9          -2.4430     2.4100     0.8920 ca         1 CTX      -0.099000
     14 C10         -3.0030     3.6990     0.8460 ca         1 CTX      -0.112500
     15 C11         -3.8120     4.0740    -0.2390 ca         1 CTX      -0.110000
     16 C12         -4.0580     3.1620    -1.2790 ca         1 CTX      -0.112500
     17 C13         -3.4980     1.8740    -1.2320 ca         1 CTX      -0.099000
     18 C14         -2.0280    -4.6550     0.9920 ca         1 CTX      -0.114000
     19 C15         -1.1310    -5.0060    -0.0300 ca         1 CTX      -0.110000
     20 C16         -0.7870    -4.0620    -1.0100 ca         1 CTX      -0.114000
     21 C17         -1.3370    -2.7700    -0.9680 ca         1 CTX      -0.097000
     22 C18         -2.2360    -2.4030     0.0560 ca         1 CTX      -0.050800
     23 C19         -2.5780    -3.3620     1.0340 ca         1 CTX      -0.097000
     24 C20         -2.8040    -1.0320     0.0880 cf         1 CTX      -0.044400
     25 NI           6.3810     1.4430     0.0720 n3         1 CTX      -0.700600
     26 C21          6.2570     2.0870     1.4010 c3         1 CTX       0.149600
     27 C22          7.7240     1.6400    -0.5160 c3         1 CTX       0.149600
     28 HA1         -4.5210     0.4980     1.7950 hc         1 CTX       0.034367
     29 HA2         -5.9140    -0.5930     1.6660 hc         1 CTX       0.034367
     30 HA3         -4.4080    -1.1610     2.4160 hc         1 CTX       0.034367
     31 HB1         -4.7440    -2.0190     0.0450 hc         1 CTX       0.049200
     32 HB2         -4.7830    -0.3870    -0.5390 hc         1 CTX       0.049200
     33 HA11         4.3270     0.0330     1.5060 h1         1 CTX       0.034200
     34 HA12         4.3360    -1.3790     0.4280 h1         1 CTX       0.034200
     35 HB11         6.6220    -0.5690     0.7200 h1         1 CTX       0.040700
     36 HB12         6.1040    -0.4000    -0.9520 h1         1 CTX       0.040700
     37 H2           1.9230     1.5740    -2.0230 ha         1 CTX       0.121500
     38 H3          -0.5540     1.4810    -1.9030 ha         1 CTX       0.117000
     39 H5          -0.2770    -1.0910     1.5620 ha         1 CTX       0.117000
     40 H6           2.1790    -1.0090     1.4390 ha         1 CTX       0.121500
     41 H9          -1.8150     2.1240     1.7330 ha         1 CTX       0.116000
     42 H10         -2.8070     4.4050     1.6490 ha         1 CTX       0.112000
     43 H11         -4.2450     5.0720    -0.2760 ha         1 CTX       0.111000
     44 H12         -4.6790     3.4540    -2.1230 ha         1 CTX       0.112000
     45 H13         -3.6820     1.1750    -2.0450 ha         1 CTX       0.116000
     46 H14         -2.2960    -5.3840     1.7540 ha         1 CTX       0.111000
     47 H15         -0.7050    -6.0060    -0.0620 ha         1 CTX       0.110000
     48 H16         -0.0940    -4.3320    -1.8050 ha         1 CTX       0.111000
     49 H17         -1.0680    -2.0520    -1.7390 ha         1 CTX       0.116000
     50 H19         -3.2620    -3.1070     1.8390 ha         1 CTX       0.116000
     51 H211         6.5650     3.1400     1.3510 h1         1 CTX       0.030533
     52 H212         5.2190     2.0650     1.7570 h1         1 CTX       0.030533
     53 H213         6.8890     1.5800     2.1430 h1         1 CTX       0.030533
     54 H221         7.7660     1.2310    -1.5340 h1         1 CTX       0.030533
     55 H222         7.9710     2.7090    -0.5720 h1         1 CTX       0.030533
     56 H223         8.4940     1.1400     0.0880 h1         1 CTX       0.030533
     57 OL           3.6010     0.3820    -0.4340 os         1 CTX      -0.328100
@<TRIPOS>BOND
     1     1     2 1   
     2     1    28 1   
     3     1    29 1   
     4     1    30 1   
     5     2    24 1   
     6     2    31 1   
     7     2    32 1   
     8     3     4 1   
     9     3    33 1   
    10     3    34 1   
    11     3    57 1   
    12     4    25 1   
    13     4    35 1   
    14     4    36 1   
    15     5     6 ar  
    16     5     9 ar  
    17     5    57 1   
    18     6     7 ar  
    19     6    37 1   
    20     7    10 ar  
    21     7    38 1   
    22     8     9 ar  
    23     8    10 ar  
    24     8    39 1   
    25     9    40 1   
    26    10    11 1   
    27    11    12 1   
    28    11    24 2   
    29    12    13 ar  
    30    12    17 ar  
    31    13    14 ar  
    32    13    41 1   
    33    14    15 ar  
    34    14    42 1   
    35    15    16 ar  
    36    15    43 1   
    37    16    17 ar  
    38    16    44 1   
    39    17    45 1   
    40    18    19 ar  
    41    18    23 ar  
    42    18    46 1   
    43    19    20 ar  
    44    19    47 1   
    45    20    21 ar  
    46    20    48 1   
    47    21    22 ar  
    48    21    49 1   
    49    22    23 ar  
    50    22    24 1   
    51    23    50 1   
    52    25    26 1   
    53    25    27 1   
    54    26    51 1   
    55    26    52 1   
    56    26    53 1   
    57    27    54 1   
    58    27    55 1   
    59    27    56 1   
@<TRIPOS>SUBSTRUCTURE
     1 CTX         1 TEMP              0 ****  ****    0 ROOT
