@<TRIPOS>MOLECULE
CTZ
   54    58     1     0     0
SMALL
bcc


@<TRIPOS>ATOM
      1 N1           0.3090    -0.7080     1.8360 n2         1 CTZ      -0.345200
      2 C2           1.6340    -0.6590     2.4210 c5         1 CTZ       0.266000
      3 C3           2.5960    -0.4890     1.2230 c          1 CTZ       0.526300
      4 N4           1.7500    -0.3100     0.1380 n          1 CTZ      -0.164200
      5 C5           2.0670    -0.1180    -1.1830 cc         1 CTZ      -0.113600
      6 C6           1.0530    -0.0400    -2.0720 cd         1 CTZ       0.392800
      7 N7          -0.2610    -0.1800    -1.6600 nd         1 CTZ      -0.626000
      8 C8          -0.5780    -0.3840    -0.4390 cc         1 CTZ       0.441600
      9 C9           0.4500    -0.4770     0.5890 cc         1 CTZ      -0.016600
     10 C10          1.7800     0.5890     3.3100 c3         1 CTZ       0.004900
     11 C11          0.8140     0.5930     4.4570 ca         1 CTZ      -0.113300
     12 C12          1.1580     0.0390     5.6880 ca         1 CTZ      -0.065000
     13 C13          0.2690     0.0280     6.7510 ca         1 CTZ      -0.198000
     14 C14         -1.0010     0.5770     6.5990 ca         1 CTZ       0.143100
     15 C15         -1.3600     1.1380     5.3760 ca         1 CTZ      -0.198000
     16 C16         -0.4580     1.1390     4.3230 ca         1 CTZ      -0.065000
     17 O17         -1.8370     0.5450     7.6580 oh         1 CTZ      -0.495100
     18 O18          3.7950    -0.4770     1.1970 o          1 CTZ      -0.522500
     19 C19          1.2460     0.1730    -3.5150 ca         1 CTZ      -0.169500
     20 C20          0.1920    -0.0570    -4.4030 ca         1 CTZ      -0.066500
     21 C21          0.3480     0.1120    -5.7670 ca         1 CTZ      -0.199500
     22 C22          1.5740     0.5240    -6.2850 ca         1 CTZ       0.149100
     23 C23          2.6320     0.7690    -5.4110 ca         1 CTZ      -0.199500
     24 C24          2.4630     0.5980    -4.0490 ca         1 CTZ      -0.066500
     25 O25          1.6790     0.6750    -7.6180 oh         1 CTZ      -0.491100
     26 C26         -2.0040    -0.5490    -0.0110 c3         1 CTZ      -0.076400
     27 C27         -2.9810    -0.3630    -1.1340 ca         1 CTZ      -0.071300
     28 C28         -3.2570    -1.4070    -2.0110 ca         1 CTZ      -0.113000
     29 C29         -4.1380    -1.2280    -3.0680 ca         1 CTZ      -0.129500
     30 C30         -4.7540     0.0030    -3.2620 ca         1 CTZ      -0.125000
     31 C31         -4.4860     1.0480    -2.3900 ca         1 CTZ      -0.129500
     32 C32         -3.6030     0.8640    -1.3340 ca         1 CTZ      -0.113000
     33 O33          1.9340    -1.7730     3.1870 oh         1 CTZ      -0.538800
     34 H5           3.1180    -0.0450    -1.4200 h4         1 CTZ       0.182000
     35 H101         1.6410     1.4770     2.6890 hc         1 CTZ       0.064700
     36 H102         2.8100     0.6190     3.6740 hc         1 CTZ       0.064700
     37 H12          2.1440    -0.3860     5.8280 ha         1 CTZ       0.132500
     38 H13          0.5590    -0.4040     7.7010 ha         1 CTZ       0.137500
     39 H15         -2.3430     1.5780     5.2440 ha         1 CTZ       0.137500
     40 H16         -0.7560     1.5810     3.3800 ha         1 CTZ       0.132500
     41 H17         -2.6820     0.9470     7.4280 ho         1 CTZ       0.424000
     42 H20         -0.7680    -0.3760    -4.0180 ha         1 CTZ       0.142500
     43 H21         -0.4820    -0.0780    -6.4370 ha         1 CTZ       0.140500
     44 H23          3.5900     1.1050    -5.7930 ha         1 CTZ       0.140500
     45 H24          3.3040     0.8160    -3.4020 ha         1 CTZ       0.142500
     46 H25          2.5670     0.9620    -7.8570 ho         1 CTZ       0.427000
     47 H261        -2.1070    -1.5430     0.4370 hc         1 CTZ       0.075200
     48 H262        -2.2020     0.1550     0.8030 hc         1 CTZ       0.075200
     49 H28         -2.7820    -2.3690    -1.8660 ha         1 CTZ       0.128000
     50 H29         -4.3460    -2.0500    -3.7410 ha         1 CTZ       0.130000
     51 H30         -5.4430     0.1420    -4.0850 ha         1 CTZ       0.130000
     52 H31         -4.9660     2.0090    -2.5290 ha         1 CTZ       0.130000
     53 H32         -3.3980     1.6850    -0.6560 ha         1 CTZ       0.128000
     54 H33          1.7290    -2.5720     2.6880 ho         1 CTZ       0.420000
@<TRIPOS>BOND
     1     1     2 1   
     2     1     9 2   
     3     2     3 1   
     4     2    10 1   
     5     2    33 1   
     6     3     4 1   
     7     3    18 2   
     8     4     5 1   
     9     4     9 1   
    10     5     6 2   
    11     5    34 1   
    12     6     7 1   
    13     6    19 1   
    14     7     8 2   
    15     8     9 1   
    16     8    26 1   
    17    10    11 1   
    18    10    35 1   
    19    10    36 1   
    20    11    12 ar  
    21    11    16 ar  
    22    12    13 ar  
    23    12    37 1   
    24    13    14 ar  
    25    13    38 1   
    26    14    15 ar  
    27    14    17 1   
    28    15    16 ar  
    29    15    39 1   
    30    16    40 1   
    31    17    41 1   
    32    19    20 ar  
    33    19    24 ar  
    34    20    21 ar  
    35    20    42 1   
    36    21    22 ar  
    37    21    43 1   
    38    22    23 ar  
    39    22    25 1   
    40    23    24 ar  
    41    23    44 1   
    42    24    45 1   
    43    25    46 1   
    44    26    27 1   
    45    26    47 1   
    46    26    48 1   
    47    27    28 ar  
    48    27    32 ar  
    49    28    29 ar  
    50    28    49 1   
    51    29    30 ar  
    52    29    50 1   
    53    30    31 ar  
    54    30    51 1   
    55    31    32 ar  
    56    31    52 1   
    57    32    53 1   
    58    33    54 1   
@<TRIPOS>SUBSTRUCTURE
     1 CTZ         1 TEMP              0 ****  ****    0 ROOT
