@<TRIPOS>MOLECULE
CTZ
   54    58     1     0     0
SMALL
No Charge or Current Charge


@<TRIPOS>ATOM
      1 N1           0.2720    -0.5950     1.2480 n2         1 CTZ      -0.345200
      2 C2           1.4310     0.0970     1.8970 c5         1 CTZ       0.289200
      3 C3           2.4000     0.4990     0.7350 c          1 CTZ       0.450800
      4 N4           1.7160    -0.0030    -0.3580 n          1 CTZ      -0.062800
      5 C5           2.1000     0.0600    -1.6880 cc         1 CTZ      -0.081000
      6 C6           1.3330    -0.4650    -2.7240 cd         1 CTZ       0.327500
      7 N7           0.1100    -1.0860    -2.4140 nd         1 CTZ      -0.626000
      8 C8          -0.2380    -1.1260    -1.1220 cc         1 CTZ       0.376300
      9 C9           0.5380    -0.5950    -0.0280 cc         1 CTZ      -0.002000
     10 C10          0.9590     1.3520     2.6830 c3         1 CTZ       0.004900
     11 C11         -0.0320     1.0710     3.8140 ca         1 CTZ      -0.113300
     12 C12          0.4320     0.8300     5.1230 ca         1 CTZ      -0.047000
     13 C13         -0.4820     0.5740     6.1610 ca         1 CTZ      -0.180000
     14 C14         -1.8590     0.5630     5.8990 ca         1 CTZ       0.143100
     15 C15         -2.3290     0.8070     4.5990 ca         1 CTZ      -0.180000
     16 C16         -1.4180     1.0610     3.5590 ca         1 CTZ      -0.047000
     17 O17         -2.7350     0.3160     6.9120 oh         1 CTZ      -0.534100
     18 O18          3.4740     1.0950     0.7320 o          1 CTZ      -0.447000
     19 C19          1.7390    -0.4040    -4.1550 ca         1 CTZ      -0.169500
     20 C20          0.9110    -0.9580    -5.1650 ca         1 CTZ      -0.048500
     21 C21          1.2870    -0.9030    -6.5180 ca         1 CTZ      -0.181500
     22 C22          2.4920    -0.2970    -6.8910 ca         1 CTZ       0.149100
     23 C23          3.3250     0.2570    -5.9110 ca         1 CTZ      -0.181500
     24 C24          2.9540     0.2060    -4.5550 ca         1 CTZ      -0.048500
     25 O25          2.8460    -0.2510    -8.2060 oh         1 CTZ      -0.530100
     26 C26         -1.5580    -1.7830    -0.7860 c3         1 CTZ      -0.076400
     27 C27         -2.6340    -0.7910    -0.3550 ca         1 CTZ      -0.071300
     28 C28         -3.0630     0.2160    -1.2440 ca         1 CTZ      -0.095000
     29 C29         -4.0530     1.1340    -0.8520 ca         1 CTZ      -0.111500
     30 C30         -4.6250     1.0480     0.4290 ca         1 CTZ      -0.107000
     31 C31         -4.2050     0.0440     1.3180 ca         1 CTZ      -0.111500
     32 C32         -3.2110    -0.8710     0.9280 ca         1 CTZ      -0.095000
     33 O33          2.0710    -0.8100     2.7950 oh         1 CTZ      -0.601000
     34 H5           3.0500     0.5600    -1.7970 h4         1 CTZ       0.164000
     35 H101         0.5090     2.0640     1.9790 hc         1 CTZ       0.064700
     36 H102         1.8360     1.8710     3.0880 hc         1 CTZ       0.064700
     37 H12          1.4990     0.8400     5.3370 ha         1 CTZ       0.114500
     38 H13         -0.1190     0.3880     7.1680 ha         1 CTZ       0.119500
     39 H15         -3.3950     0.8030     4.3880 ha         1 CTZ       0.119500
     40 H16         -1.7880     1.2500     2.5530 ha         1 CTZ       0.114500
     41 H17         -3.6460     0.3520     6.5500 ho         1 CTZ       0.463000
     42 H20         -0.0330    -1.4370    -4.9140 ha         1 CTZ       0.124500
     43 H21          0.6400    -1.3340    -7.2770 ha         1 CTZ       0.122500
     44 H23          4.2630     0.7310    -6.1910 ha         1 CTZ       0.122500
     45 H24          3.6310     0.6490    -3.8310 ha         1 CTZ       0.124500
     46 H25          3.7130     0.2030    -8.2770 ho         1 CTZ       0.466000
     47 H261        -1.9200    -2.3510    -1.6510 hc         1 CTZ       0.075200
     48 H262        -1.3910    -2.5320    -0.0030 hc         1 CTZ       0.075200
     49 H28         -2.6280     0.2880    -2.2390 ha         1 CTZ       0.110000
     50 H29         -4.3790     1.9090    -1.5420 ha         1 CTZ       0.112000
     51 H30         -5.3930     1.7570     0.7320 ha         1 CTZ       0.112000
     52 H31         -4.6480    -0.0250     2.3090 ha         1 CTZ       0.112000
     53 H32         -2.8890    -1.6410     1.6270 ha         1 CTZ       0.110000
     54 H33          1.3480    -1.1870     3.3380 ho         1 CTZ       0.459000
@<TRIPOS>BOND
     1     1     2 1   
     2     1     9 2   
     3     2     3 1   
     4     2    10 1   
     5     2    33 1   
     6     3     4 1   
     7     3    18 2   
     8     4     5 1   
     9     4     9 1   
    10     5     6 2   
    11     5    34 1   
    12     6     7 1   
    13     6    19 1   
    14     7     8 2   
    15     8     9 1   
    16     8    26 1   
    17    10    11 1   
    18    10    35 1   
    19    10    36 1   
    20    11    12 ar  
    21    11    16 ar  
    22    12    13 ar  
    23    12    37 1   
    24    13    14 ar  
    25    13    38 1   
    26    14    15 ar  
    27    14    17 1   
    28    15    16 ar  
    29    15    39 1   
    30    16    40 1   
    31    17    41 1   
    32    19    20 ar  
    33    19    24 ar  
    34    20    21 ar  
    35    20    42 1   
    36    21    22 ar  
    37    21    43 1   
    38    22    23 ar  
    39    22    25 1   
    40    23    24 ar  
    41    23    44 1   
    42    24    45 1   
    43    25    46 1   
    44    26    27 1   
    45    26    47 1   
    46    26    48 1   
    47    27    28 ar  
    48    27    32 ar  
    49    28    29 ar  
    50    28    49 1   
    51    29    30 ar  
    52    29    50 1   
    53    30    31 ar  
    54    30    51 1   
    55    31    32 ar  
    56    31    52 1   
    57    32    53 1   
    58    33    54 1   
@<TRIPOS>SUBSTRUCTURE
     1 CTZ         1 TEMP              0 ****  ****    0 ROOT
