@<TRIPOS>MOLECULE
CU4
   50    53     1     0     0
SMALL
No Charge or Current Charge


@<TRIPOS>ATOM
      1 C01          5.5210    -3.9490     0.9640 c3         1 CU4      -0.335100
      2 C05          3.0870    -3.3000    -0.2980 ca         1 CU4      -0.257500
      3 C06          1.9520    -3.7830     0.3830 ca         1 CU4      -0.021000
      4 C07          0.8190    -2.9650     0.5330 ca         1 CU4      -0.094000
      5 C08          0.8030    -1.6370     0.0450 ca         1 CU4      -0.069500
      6 C09          1.9300    -1.1880    -0.6820 ca         1 CU4      -0.094000
      7 C10          3.0660    -2.0000    -0.8380 ca         1 CU4      -0.021000
      8 C11         -0.4280    -0.8270     0.1650 cc         1 CU4       0.357500
      9 C14         -1.8990     0.8760     0.0840 cd         1 CU4      -0.125000
     10 C15         -0.5580     0.5960     0.1710 cc         1 CU4      -0.261600
     11 C16          0.5060     1.6150     0.3680 c          1 CU4       0.655700
     12 C19          0.6780     4.1810     0.2960 ca         1 CU4       0.007000
     13 C20         -0.1290     5.3250     0.1390 ca         1 CU4      -0.189000
     14 C21          0.4230     6.6150     0.2160 ca         1 CU4      -0.054000
     15 C22          1.7980     6.7720     0.4490 ca         1 CU4      -0.179000
     16 C23          2.6100     5.6400     0.6020 ca         1 CU4       0.200000
     17 C25          2.0610     4.3510     0.5260 ca         1 CU4      -0.179000
     18 C26         -3.8720    -0.4450     0.0390 ca         1 CU4       0.030800
     19 C27         -4.6070     0.1550    -1.0040 ca         1 CU4      -0.115500
     20 C28         -6.0120     0.0880    -1.0120 ca         1 CU4      -0.056000
     21 C29         -6.6940    -0.5820     0.0210 ca         1 CU4      -0.013000
     22 C30         -5.9630    -1.1870     1.0610 ca         1 CU4      -0.056000
     23 C31         -4.5580    -1.1190     1.0680 ca         1 CU4      -0.115500
     24 C32         -8.1300    -0.6510     0.0130 cg         1 CU4       0.316000
     25 F24          3.9340     5.7920     0.8230 f          1 CU4      -0.175000
     26 N12         -1.6020    -1.4410     0.1170 nd         1 CU4      -0.501800
     27 N13         -2.4770    -0.3840     0.0520 na         1 CU4       0.239000
     28 N18          0.0410     2.9130     0.2020 ns         1 CU4      -0.145000
     29 N33         -9.2970    -0.6970     0.0070 n1         1 CU4      -0.432000
     30 O03          5.3190    -3.8770    -1.6480 o          1 CU4      -0.524500
     31 O04          4.1500    -5.7510    -0.3550 o          1 CU4      -0.524500
     32 O17          1.6570     1.3490     0.6860 o          1 CU4      -0.560100
     33 S02          4.5480    -4.3440    -0.4880 sy         1 CU4       1.057500
     34 H1           4.9280    -4.1980     1.8500 h1         1 CU4       0.103700
     35 H2           6.4390    -4.5440     0.9320 h1         1 CU4       0.103700
     36 H3           5.7500    -2.8790     0.9400 h1         1 CU4       0.103700
     37 H4           1.9390    -4.7910     0.7950 ha         1 CU4       0.138500
     38 H5          -0.0450    -3.3640     1.0580 ha         1 CU4       0.126000
     39 H6           1.9220    -0.2190    -1.1730 ha         1 CU4       0.126000
     40 H7           3.9200    -1.6170    -1.3940 ha         1 CU4       0.138500
     41 H8          -2.4690     1.7990     0.0940 h4         1 CU4       0.165000
     42 H9          -1.1970     5.2160    -0.0420 ha         1 CU4       0.112000
     43 H10         -0.2140     7.4900     0.0950 ha         1 CU4       0.118000
     44 H11          2.2340     7.7660     0.5100 ha         1 CU4       0.136000
     45 H12          2.7300     3.5060     0.6460 ha         1 CU4       0.165000
     46 H13         -4.0900     0.6710    -1.8110 ha         1 CU4       0.139000
     47 H14         -6.5680     0.5570    -1.8230 ha         1 CU4       0.135500
     48 H15         -6.4800    -1.7090     1.8640 ha         1 CU4       0.135500
     49 H16         -4.0000    -1.5900     1.8760 ha         1 CU4       0.139000
     50 H17         -0.9370     2.9700    -0.0430 hn         1 CU4       0.152000
@<TRIPOS>BOND
     1     1    33 1   
     2     1    34 1   
     3     1    35 1   
     4     1    36 1   
     5     2     3 ar  
     6     2     7 ar  
     7     2    33 1   
     8     3     4 ar  
     9     3    37 1   
    10     4     5 ar  
    11     4    38 1   
    12     5     6 ar  
    13     5     8 1   
    14     6     7 ar  
    15     6    39 1   
    16     7    40 1   
    17     8    10 1   
    18     8    26 2   
    19     9    10 2   
    20     9    27 1   
    21     9    41 1   
    22    10    11 1   
    23    11    28 1   
    24    11    32 2   
    25    12    13 ar  
    26    12    17 ar  
    27    12    28 1   
    28    13    14 ar  
    29    13    42 1   
    30    14    15 ar  
    31    14    43 1   
    32    15    16 ar  
    33    15    44 1   
    34    16    17 ar  
    35    16    25 1   
    36    17    45 1   
    37    18    19 ar  
    38    18    23 ar  
    39    18    27 1   
    40    19    20 ar  
    41    19    46 1   
    42    20    21 ar  
    43    20    47 1   
    44    21    22 ar  
    45    21    24 1   
    46    22    23 ar  
    47    22    48 1   
    48    23    49 1   
    49    24    29 3   
    50    26    27 1   
    51    28    50 1   
    52    30    33 2   
    53    31    33 2   
@<TRIPOS>SUBSTRUCTURE
     1 CU4         1 TEMP              0 ****  ****    0 ROOT
