@<TRIPOS>MOLECULE
CU4
   50    53     1     0     0
SMALL
bcc


@<TRIPOS>ATOM
      1 C01          5.3620    -3.6000     0.9360 c3         1 CU4      -0.224300
      2 C05          2.8800    -3.1240    -0.2570 ca         1 CU4      -0.257500
      3 C06          1.7970    -3.5520     0.4970 ca         1 CU4      -0.039000
      4 C07          0.6870    -2.7310     0.6050 ca         1 CU4      -0.112000
      5 C08          0.6580    -1.4900    -0.0290 ca         1 CU4      -0.069500
      6 C09          1.7540    -1.0850    -0.7900 ca         1 CU4      -0.112000
      7 C10          2.8650    -1.8990    -0.9110 ca         1 CU4      -0.039000
      8 C11         -0.5380    -0.6490     0.0770 cc         1 CU4       0.422800
      9 C14         -2.0020     0.9960     0.2370 cd         1 CU4      -0.092300
     10 C15         -0.6500     0.7600     0.2150 cc         1 CU4      -0.326900
     11 C16          0.4270     1.7380     0.4640 c          1 CU4       0.722700
     12 C19          0.9110     4.1540     0.1450 ca         1 CU4       0.099600
     13 C20          0.4640     5.2790    -0.5550 ca         1 CU4      -0.207000
     14 C21          1.1470     6.4770    -0.4650 ca         1 CU4      -0.072000
     15 C22          2.2880     6.5940     0.3200 ca         1 CU4      -0.197000
     16 C23          2.7050     5.4690     1.0000 ca         1 CU4       0.164900
     17 C25          2.0540     4.2510     0.9380 ca         1 CU4      -0.197000
     18 C26         -3.9870    -0.4690     0.1090 ca         1 CU4       0.030800
     19 C27         -4.8870     0.5450    -0.2050 ca         1 CU4      -0.133500
     20 C28         -6.2430     0.2840    -0.1900 ca         1 CU4      -0.074000
     21 C29         -6.7020    -0.9950     0.1230 ca         1 CU4      -0.013000
     22 C30         -5.7940    -2.0100     0.4220 ca         1 CU4      -0.074000
     23 C31         -4.4380    -1.7480     0.4180 ca         1 CU4      -0.133500
     24 C32         -8.1020    -1.2650     0.1340 cg         1 CU4       0.226800
     25 F24          3.8030     5.5500     1.7680 f          1 CU4      -0.139900
     26 N12         -1.7290    -1.2020     0.0160 nd         1 CU4      -0.501800
     27 N13         -2.6070    -0.2020     0.1160 na         1 CU4       0.188300
     28 N18          0.1540     2.9900     0.0100 ns         1 CU4      -0.471100
     29 N33         -9.2330    -1.4830     0.1400 n1         1 CU4      -0.342800
     30 O03          4.9790    -3.8740    -1.6540 o          1 CU4      -0.595300
     31 O04          3.9110    -5.5370    -0.0980 o          1 CU4      -0.595300
     32 O17          1.4510     1.4220     1.0410 o          1 CU4      -0.560100
     33 S02          4.3140    -4.1620    -0.3860 sy         1 CU4       1.088300
     34 H1           4.8420    -3.7170     1.8840 h1         1 CU4       0.103700
     35 H2           6.2590    -4.2200     0.9230 h1         1 CU4       0.103700
     36 H3           5.6260    -2.5580     0.7730 h1         1 CU4       0.103700
     37 H4           1.8090    -4.5090     0.9990 ha         1 CU4       0.156500
     38 H5          -0.1590    -3.0560     1.1960 ha         1 CU4       0.144000
     39 H6           1.7340    -0.1430    -1.3220 ha         1 CU4       0.144000
     40 H7           3.7020    -1.5780    -1.5160 ha         1 CU4       0.156500
     41 H8          -2.5540     1.9100     0.3860 h4         1 CU4       0.183000
     42 H9          -0.4230     5.2100    -1.1730 ha         1 CU4       0.130000
     43 H10          0.7880     7.3360    -1.0160 ha         1 CU4       0.136000
     44 H11          2.8300     7.5260     0.3980 ha         1 CU4       0.154000
     45 H12          2.4380     3.4130     1.4970 ha         1 CU4       0.183000
     46 H13         -4.5470     1.5330    -0.4800 ha         1 CU4       0.157000
     47 H14         -6.9430     1.0710    -0.4330 ha         1 CU4       0.153500
     48 H15         -6.1470    -3.0020     0.6660 ha         1 CU4       0.153500
     49 H16         -3.7370    -2.5330     0.6600 ha         1 CU4       0.157000
     50 H17         -0.6770     3.0930    -0.5520 hn         1 CU4       0.318500
@<TRIPOS>BOND
     1     1    33 1   
     2     1    34 1   
     3     1    35 1   
     4     1    36 1   
     5     2     3 ar  
     6     2     7 ar  
     7     2    33 1   
     8     3     4 ar  
     9     3    37 1   
    10     4     5 ar  
    11     4    38 1   
    12     5     6 ar  
    13     5     8 1   
    14     6     7 ar  
    15     6    39 1   
    16     7    40 1   
    17     8    10 1   
    18     8    26 2   
    19     9    10 2   
    20     9    27 1   
    21     9    41 1   
    22    10    11 1   
    23    11    28 1   
    24    11    32 2   
    25    12    13 ar  
    26    12    17 ar  
    27    12    28 1   
    28    13    14 ar  
    29    13    42 1   
    30    14    15 ar  
    31    14    43 1   
    32    15    16 ar  
    33    15    44 1   
    34    16    17 ar  
    35    16    25 1   
    36    17    45 1   
    37    18    19 ar  
    38    18    23 ar  
    39    18    27 1   
    40    19    20 ar  
    41    19    46 1   
    42    20    21 ar  
    43    20    47 1   
    44    21    22 ar  
    45    21    24 1   
    46    22    23 ar  
    47    22    48 1   
    48    23    49 1   
    49    24    29 3   
    50    26    27 1   
    51    28    50 1   
    52    30    33 2   
    53    31    33 2   
@<TRIPOS>SUBSTRUCTURE
     1 CU4         1 TEMP              0 ****  ****    0 ROOT
