@<TRIPOS>MOLECULE
CU5
   35    37     1     0     0
SMALL
abcg2


@<TRIPOS>ATOM
      1 C10         -0.5300     2.1150     0.4670 c          1 CU5       0.614700
      2 C15         -0.9790    -3.3600     0.6850 c3         1 CU5       0.143900
      3 C17          3.6290     0.4680    -1.1670 ca         1 CU5      -0.085500
      4 C20          4.4040    -0.9450     1.0880 ca         1 CU5      -0.112000
      5 C21          3.0800    -0.5660     0.9300 ca         1 CU5      -0.085500
      6 C01          0.9290     1.7680     0.5530 c6         1 CU5      -0.207400
      7 C02          1.2630     0.6020    -0.3630 c6         1 CU5       0.228600
      8 O03          0.4120    -0.5110    -0.0890 os         1 CU5      -0.319100
      9 C04         -0.9040    -0.2730    -0.0560 ca         1 CU5       0.246100
     10 C05         -1.7420    -1.3590    -0.2440 ca         1 CU5      -0.037900
     11 C06         -3.1290    -1.1520    -0.2020 ca         1 CU5       0.234100
     12 C07         -3.6690     0.1170    -0.0040 ca         1 CU5      -0.316000
     13 C08         -2.8250     1.1990     0.1830 ca         1 CU5       0.294100
     14 C09         -1.4210     1.0210     0.1650 ca         1 CU5      -0.416600
     15 O11         -0.9340     3.2570     0.6860 o          1 CU5      -0.577100
     16 O12         -3.3590     2.3970     0.3900 oh         1 CU5      -0.537100
     17 O13         -3.8920    -2.2290    -0.3830 oh         1 CU5      -0.503100
     18 O14         -1.2420    -2.5980    -0.4870 os         1 CU5      -0.317100
     19 C16          2.6840     0.1430    -0.2020 ca         1 CU5      -0.094300
     20 C18          4.9580     0.0950    -1.0050 ca         1 CU5      -0.112000
     21 C19          5.3470    -0.6140     0.1220 ca         1 CU5      -0.097000
     22 H151        -0.6110    -4.3320     0.3610 h1         1 CU5       0.034033
     23 H152        -0.2170    -2.8890     1.3110 h1         1 CU5       0.034033
     24 H153        -1.8820    -3.5090     1.2820 h1         1 CU5       0.034033
     25 H201         4.7030    -1.4990     1.9690 ha         1 CU5       0.116500
     26 H211         2.3550    -0.8250     1.6920 ha         1 CU5       0.117000
     27 H011         1.5380     2.6340     0.2930 hc         1 CU5       0.089700
     28 H012         1.1540     1.5120     1.5950 hc         1 CU5       0.089700
     29 H021         1.0970     0.9110    -1.4030 h1         1 CU5       0.063700
     30 H071        -4.7430     0.2600     0.0130 ha         1 CU5       0.138000
     31 H121        -2.6220     3.0330     0.5390 ho         1 CU5       0.519000
     32 H131        -4.8270    -1.9940    -0.3450 ho         1 CU5       0.473000
     33 H181         5.6860     0.3550    -1.7630 ha         1 CU5       0.116500
     34 H191         6.3800    -0.9100     0.2480 ha         1 CU5       0.115000
     35 H171         3.3260     1.0140    -2.0530 ha         1 CU5       0.117000
@<TRIPOS>BOND
     1     1     6 1   
     2     1    14 1   
     3     1    15 2   
     4     2    18 1   
     5     2    22 1   
     6     2    23 1   
     7     2    24 1   
     8     3    19 ar  
     9     3    20 ar  
    10     3    35 1   
    11     4     5 ar  
    12     4    21 ar  
    13     4    25 1   
    14     5    19 ar  
    15     5    26 1   
    16     6     7 1   
    17     6    27 1   
    18     6    28 1   
    19     7     8 1   
    20     7    19 1   
    21     7    29 1   
    22     8     9 1   
    23     9    10 ar  
    24     9    14 ar  
    25    10    11 ar  
    26    10    18 1   
    27    11    12 ar  
    28    11    17 1   
    29    12    13 ar  
    30    12    30 1   
    31    13    14 ar  
    32    13    16 1   
    33    16    31 1   
    34    17    32 1   
    35    20    21 ar  
    36    20    33 1   
    37    21    34 1   
@<TRIPOS>SUBSTRUCTURE
     1 CU5         1 TEMP              0 ****  ****    0 ROOT
