@<TRIPOS>MOLECULE
CU5
   35    37     1     0     0
SMALL
No Charge or Current Charge


@<TRIPOS>ATOM
      1 C10         -0.6060     2.1580     0.3420 c          1 CU5       0.614700
      2 C15         -0.2290    -3.2130    -0.0460 c3         1 CU5       0.143900
      3 C17          3.5780     0.2300    -1.0540 ca         1 CU5      -0.085500
      4 C20          4.3360    -0.9300     1.3910 ca         1 CU5      -0.112000
      5 C21          3.0140    -0.4930     1.2000 ca         1 CU5      -0.085500
      6 C01          0.8380     1.7960     0.6030 c6         1 CU5      -0.207400
      7 C02          1.1860     0.5710    -0.2400 c6         1 CU5       0.228600
      8 O03          0.2910    -0.5030     0.0890 os         1 CU5      -0.319100
      9 C04         -1.0730    -0.2970     0.0990 ca         1 CU5       0.246100
     10 C05         -1.9750    -1.4010     0.0220 ca         1 CU5      -0.037900
     11 C06         -3.3620    -1.1350     0.0160 ca         1 CU5       0.234100
     12 C07         -3.8410     0.1750     0.0880 ca         1 CU5      -0.316000
     13 C08         -2.9540     1.2430     0.1790 ca         1 CU5       0.294100
     14 C09         -1.5700     1.0230     0.1990 ca         1 CU5      -0.416600
     15 O11         -0.9590     3.3240     0.2130 o          1 CU5      -0.577100
     16 O12         -3.4600     2.4980     0.2530 oh         1 CU5      -0.537100
     17 O13         -4.2660    -2.1550    -0.0640 oh         1 CU5      -0.503100
     18 O14         -1.5890    -2.7420    -0.0590 os         1 CU5      -0.317100
     19 C16          2.6260     0.0910    -0.0240 ca         1 CU5      -0.094300
     20 C18          4.9000    -0.2070    -0.8620 ca         1 CU5      -0.112000
     21 C19          5.2800    -0.7870     0.3600 ca         1 CU5      -0.097000
     22 H151        -0.2100    -4.3090    -0.1060 h1         1 CU5       0.034033
     23 H152         0.3300    -2.8220    -0.9060 h1         1 CU5       0.034033
     24 H153         0.2800    -2.9190     0.8800 h1         1 CU5       0.034033
     25 H201         4.6290    -1.3800     2.3370 ha         1 CU5       0.116500
     26 H211         2.2900    -0.6110     2.0040 ha         1 CU5       0.117000
     27 H011         1.4970     2.6550     0.4280 hc         1 CU5       0.089700
     28 H012         0.9060     1.4900     1.6540 hc         1 CU5       0.089700
     29 H021         1.0440     0.8160    -1.3030 h1         1 CU5       0.063700
     30 H071        -4.9090     0.3750     0.0790 ha         1 CU5       0.138000
     31 H121        -2.6750     3.1000     0.2430 ho         1 CU5       0.519000
     32 H131        -5.1640    -1.7650    -0.0540 ho         1 CU5       0.473000
     33 H181         5.6310    -0.0960    -1.6610 ha         1 CU5       0.116500
     34 H191         6.3040    -1.1250     0.5080 ha         1 CU5       0.115000
     35 H171         3.2960     0.6780    -2.0050 ha         1 CU5       0.117000
@<TRIPOS>BOND
     1     1     6 1   
     2     1    14 1   
     3     1    15 2   
     4     2    18 1   
     5     2    22 1   
     6     2    23 1   
     7     2    24 1   
     8     3    19 ar  
     9     3    20 ar  
    10     3    35 1   
    11     4     5 ar  
    12     4    21 ar  
    13     4    25 1   
    14     5    19 ar  
    15     5    26 1   
    16     6     7 1   
    17     6    27 1   
    18     6    28 1   
    19     7     8 1   
    20     7    19 1   
    21     7    29 1   
    22     8     9 1   
    23     9    10 ar  
    24     9    14 ar  
    25    10    11 ar  
    26    10    18 1   
    27    11    12 ar  
    28    11    17 1   
    29    12    13 ar  
    30    12    30 1   
    31    13    14 ar  
    32    13    16 1   
    33    16    31 1   
    34    17    32 1   
    35    20    21 ar  
    36    20    33 1   
    37    21    34 1   
@<TRIPOS>SUBSTRUCTURE
     1 CU5         1 TEMP              0 ****  ****    0 ROOT
