@<TRIPOS>MOLECULE
CU7
   29    28     1     0     0
SMALL
No Charge or Current Charge


@<TRIPOS>ATOM
      1 C12          3.9070    -0.6090     0.6750 c3         1 CU7       0.117600
      2 O1          -4.2410    -1.8150     0.1590 oh         1 CU7      -0.649000
      3 O6          -0.8480     1.7940     0.2210 os         1 CU7      -0.566900
      4 C2          -4.0270    -0.3930     0.1790 c3         1 CU7       0.117600
      5 C3          -2.5090    -0.0780     0.2160 c3         1 CU7       0.160800
      6 C5          -2.2490     1.4590     0.3140 c3         1 CU7       0.194100
      7 O4          -1.9340    -0.7730     1.3420 oh         1 CU7      -0.629500
      8 O15         -0.8100     1.6700    -2.3390 o          1 CU7      -0.833000
      9 P7           0.0260     1.5210    -1.1110 p5         1 CU7       1.395800
     10 O14          1.2200     2.4150    -1.1600 o          1 CU7      -0.833000
     11 O8           0.4260    -0.0220    -0.8580 os         1 CU7      -0.566900
     12 C9           1.4050    -0.4050     0.1270 c3         1 CU7       0.194100
     13 C10          2.8620    -0.2260    -0.4040 c3         1 CU7       0.160800
     14 O13          5.2390    -0.5020     0.1430 oh         1 CU7      -0.649000
     15 O11          3.0970    -1.0430    -1.5700 oh         1 CU7      -0.629500
     16 H1           3.7910     0.0590     1.5390 h1         1 CU7       0.014700
     17 H2           3.7190    -1.6350     1.0200 h1         1 CU7       0.014700
     18 H3          -5.2110    -1.9600     0.0870 ho         1 CU7       0.424000
     19 H6          -2.0850    -0.4520    -0.7250 h1         1 CU7       0.090700
     20 H7          -2.6550     1.8270     1.2650 h1         1 CU7       0.018450
     21 H8          -2.8070     1.9640    -0.4860 h1         1 CU7       0.018450
     22 H9          -2.4330    -1.6190     1.3870 ho         1 CU7       0.426500
     23 H11          1.2820     0.1970     1.0380 h1         1 CU7       0.018450
     24 H12          1.2530    -1.4550     0.4110 h1         1 CU7       0.018450
     25 H13          3.0280     0.8310    -0.6440 h1         1 CU7       0.090700
     26 H14          5.8610    -0.7040     0.8770 ho         1 CU7       0.424000
     27 H15          4.0740    -1.1520    -1.6000 ho         1 CU7       0.426500
     28 H4          -4.4660     0.0670    -0.7150 h1         1 CU7       0.014700
     29 H5          -4.5140     0.0510     1.0570 h1         1 CU7       0.014700
@<TRIPOS>BOND
     1     1    13 1   
     2     1    14 1   
     3     1    16 1   
     4     1    17 1   
     5     2     4 1   
     6     2    18 1   
     7     3     6 1   
     8     3     9 1   
     9     4     5 1   
    10     4    28 1   
    11     4    29 1   
    12     5     6 1   
    13     5     7 1   
    14     5    19 1   
    15     6    20 1   
    16     6    21 1   
    17     7    22 1   
    18     8     9 1   
    19     9    10 1   
    20     9    11 1   
    21    11    12 1   
    22    12    13 1   
    23    12    23 1   
    24    12    24 1   
    25    13    15 1   
    26    13    25 1   
    27    14    26 1   
    28    15    27 1   
@<TRIPOS>SUBSTRUCTURE
     1 CU7         1 TEMP              0 ****  ****    0 ROOT
