@<TRIPOS>MOLECULE
CU7
   29    28     1     0     0
SMALL
abcg2


@<TRIPOS>ATOM
      1 C12          4.9170    -0.1060    -0.0150 c3         1 CU7       0.117600
      2 O1          -5.7230    -1.2510    -0.4750 oh         1 CU7      -0.649000
      3 O6          -1.1720     0.1200    -0.1370 os         1 CU7      -0.566900
      4 C2          -4.8830    -0.1660    -0.1650 c3         1 CU7       0.117600
      5 C3          -3.4370    -0.6330    -0.2090 c3         1 CU7       0.160800
      6 C5          -2.5090     0.5550    -0.0110 c3         1 CU7       0.194100
      7 O4          -3.1800    -1.6700     0.7080 oh         1 CU7      -0.629500
      8 O15         -0.0240     2.2480    -1.0170 o          1 CU7      -0.833000
      9 P7           0.0110     1.2350     0.0860 p5         1 CU7       1.395800
     10 O14          0.0370     1.6950     1.5110 o          1 CU7      -0.833000
     11 O8           1.2080     0.1450    -0.1840 os         1 CU7      -0.566900
     12 C9           2.5210     0.5160     0.1770 c3         1 CU7       0.194100
     13 C10          3.4970    -0.5130    -0.3720 c3         1 CU7       0.160800
     14 O13          5.8190    -0.9990    -0.6230 oh         1 CU7      -0.649000
     15 O11          3.1910    -1.8200     0.0550 oh         1 CU7      -0.629500
     16 H1           5.0820     0.9270    -0.3500 h1         1 CU7       0.014700
     17 H2           5.0250    -0.1020     1.0800 h1         1 CU7       0.014700
     18 H3          -6.6330    -0.9480    -0.4170 ho         1 CU7       0.424000
     19 H6          -3.2420    -1.0580    -1.2000 h1         1 CU7       0.090700
     20 H7          -2.6860     0.9990     0.9780 h1         1 CU7       0.018450
     21 H8          -2.7450     1.3230    -0.7570 h1         1 CU7       0.018450
     22 H9          -3.3400    -1.3390     1.5990 ho         1 CU7       0.426500
     23 H11          2.7850     1.5010    -0.2260 h1         1 CU7       0.018450
     24 H12          2.6210     0.5770     1.2690 h1         1 CU7       0.018450
     25 H13          3.4040    -0.5300    -1.4640 h1         1 CU7       0.090700
     26 H14          6.7090    -0.7430    -0.3670 ho         1 CU7       0.424000
     27 H15          3.2540    -1.8520     1.0160 ho         1 CU7       0.426500
     28 H4          -5.0080     0.6590    -0.8770 h1         1 CU7       0.014700
     29 H5          -5.0990     0.2420     0.8330 h1         1 CU7       0.014700
@<TRIPOS>BOND
     1     1    13 1   
     2     1    14 1   
     3     1    16 1   
     4     1    17 1   
     5     2     4 1   
     6     2    18 1   
     7     3     6 1   
     8     3     9 1   
     9     4     5 1   
    10     4    28 1   
    11     4    29 1   
    12     5     6 1   
    13     5     7 1   
    14     5    19 1   
    15     6    20 1   
    16     6    21 1   
    17     7    22 1   
    18     8     9 1   
    19     9    10 1   
    20     9    11 1   
    21    11    12 1   
    22    12    13 1   
    23    12    23 1   
    24    12    24 1   
    25    13    15 1   
    26    13    25 1   
    27    14    26 1   
    28    15    27 1   
@<TRIPOS>SUBSTRUCTURE
     1 CU7         1 TEMP              0 ****  ****    0 ROOT
