@<TRIPOS>MOLECULE
CU8
   31    33     1     0     0
SMALL
No Charge or Current Charge


@<TRIPOS>ATOM
      1 O           -4.8580    -0.7730    -0.0750 o          1 CU8      -0.589100
      2 C12         -4.2640     0.2840     0.0250 c          1 CU8       0.656300
      3 N3          -4.9720     1.4300     0.0880 nt         1 CU8      -0.613000
      4 C5          -2.8110     0.4360     0.0900 cc         1 CU8      -0.363800
      5 C           -1.8530    -0.5230     0.0340 cd         1 CU8       0.431500
      6 N           -0.6480     0.1620     0.1470 na         1 CU8       0.115900
      7 N2          -0.7760     1.5390     0.2160 nd         1 CU8      -0.575100
      8 C4          -2.0990     1.6520     0.2010 cc         1 CU8       0.409500
      9 N1          -2.1130    -1.8620    -0.1650 nd         1 CU8      -0.608000
     10 C3          -0.9470    -2.4890    -0.2720 cc         1 CU8       0.379900
     11 C2           0.3630    -1.8870    -0.1930 cc         1 CU8      -0.222000
     12 C1           0.5810    -0.5290     0.0570 cd         1 CU8       0.053000
     13 C6           1.9440     0.0830     0.0960 ca         1 CU8      -0.064000
     14 C10          2.2020     1.3110     0.7530 ca         1 CU8      -0.057000
     15 C11          3.4950     1.8590     0.7860 ca         1 CU8      -0.114000
     16 C9           4.5620     1.1940     0.1660 ca         1 CU8      -0.088000
     17 C8           4.3380    -0.0290    -0.4860 ca         1 CU8      -0.080300
     18 C13          5.4880    -0.7610    -1.1610 c3         1 CU8      -0.047800
     19 C7           3.0410    -0.5770    -0.5120 ca         1 CU8      -0.083000
     20 H1          -5.9790     1.3810     0.0490 hn         1 CU8       0.309000
     21 H2          -4.5080     2.3200     0.1730 hn         1 CU8       0.309000
     22 H3          -2.5170     2.6490     0.2590 h4         1 CU8       0.044800
     23 H4          -1.0520    -3.5520    -0.4400 h4         1 CU8       0.035100
     24 H5           1.1920    -2.5730    -0.2980 ha         1 CU8       0.145000
     25 H6           1.4190     1.8400     1.2860 ha         1 CU8       0.131000
     26 H7           3.6720     2.7990     1.3040 ha         1 CU8       0.119000
     27 H8           5.5600     1.6260     0.1990 ha         1 CU8       0.115000
     28 H9           5.8760    -1.5570    -0.5150 hc         1 CU8       0.045033
     29 H10          5.1690    -1.2200    -2.1040 hc         1 CU8       0.045033
     30 H11          6.3190    -0.0830    -1.3910 hc         1 CU8       0.045033
     31 H12          2.8970    -1.5130    -1.0430 ha         1 CU8       0.116000
@<TRIPOS>BOND
     1     1     2 2   
     2     2     3 1   
     3     2     4 1   
     4     3    20 1   
     5     3    21 1   
     6     4     5 2   
     7     4     8 1   
     8     5     6 1   
     9     5     9 1   
    10     6     7 1   
    11     6    12 1   
    12     7     8 2   
    13     8    22 1   
    14     9    10 2   
    15    10    11 1   
    16    10    23 1   
    17    11    12 2   
    18    11    24 1   
    19    12    13 1   
    20    13    14 ar  
    21    13    19 ar  
    22    14    15 ar  
    23    14    25 1   
    24    15    16 ar  
    25    15    26 1   
    26    16    17 ar  
    27    16    27 1   
    28    17    18 1   
    29    17    19 ar  
    30    18    28 1   
    31    18    29 1   
    32    18    30 1   
    33    19    31 1   
@<TRIPOS>SUBSTRUCTURE
     1 CU8         1 TEMP              0 ****  ****    0 ROOT
