@<TRIPOS>MOLECULE
CU8
   31    33     1     0     0
SMALL
abcg2


@<TRIPOS>ATOM
      1 O           -4.7450    -0.7000    -0.1580 o          1 CU8      -0.589100
      2 C12         -4.1910     0.3900    -0.1000 c          1 CU8       0.656300
      3 N3          -4.8770     1.5490    -0.0990 nt         1 CU8      -0.613000
      4 C5          -2.7290     0.5140    -0.0450 cc         1 CU8      -0.363800
      5 C           -1.8130    -0.5380     0.0220 cd         1 CU8       0.431500
      6 N           -0.5650     0.0640     0.0500 na         1 CU8       0.115900
      7 N2          -0.6360     1.3970    -0.0110 nd         1 CU8      -0.575100
      8 C4          -1.9250     1.6630    -0.0640 cc         1 CU8       0.409500
      9 N1          -1.9570    -1.8650     0.0480 nd         1 CU8      -0.608000
     10 C3          -0.8590    -2.5740     0.0890 cc         1 CU8       0.379900
     11 C2           0.4340    -2.0200     0.1190 cc         1 CU8      -0.222000
     12 C1           0.5860    -0.6600     0.1050 cd         1 CU8       0.053000
     13 C6           1.8930     0.0070     0.1530 ca         1 CU8      -0.064000
     14 C10          2.1420     1.0820     1.0070 ca         1 CU8      -0.057000
     15 C11          3.4140     1.6270     1.0600 ca         1 CU8      -0.114000
     16 C9           4.4320     1.1220     0.2630 ca         1 CU8      -0.088000
     17 C8           4.2020     0.0510    -0.5970 ca         1 CU8      -0.080300
     18 C13          5.3070    -0.5140    -1.4410 c3         1 CU8      -0.047800
     19 C7           2.9250    -0.4970    -0.6370 ca         1 CU8      -0.083000
     20 H1          -5.8830     1.5270    -0.0840 hn         1 CU8       0.309000
     21 H2          -4.4430     2.4430     0.0430 hn         1 CU8       0.309000
     22 H3          -2.2350     2.6960    -0.1230 h4         1 CU8       0.044800
     23 H4          -0.9720    -3.6510     0.1100 h4         1 CU8       0.035100
     24 H5           1.2990    -2.6620     0.1820 ha         1 CU8       0.145000
     25 H6           1.3590     1.4830     1.6340 ha         1 CU8       0.131000
     26 H7           3.6110     2.4570     1.7250 ha         1 CU8       0.119000
     27 H8           5.4190     1.5680     0.3100 ha         1 CU8       0.115000
     28 H9           5.8360    -1.3070    -0.9080 hc         1 CU8       0.045033
     29 H10          4.9240    -0.9440    -2.3660 hc         1 CU8       0.045033
     30 H11          6.0410     0.2490    -1.6980 hc         1 CU8       0.045033
     31 H12          2.7270    -1.3220    -1.3130 ha         1 CU8       0.116000
@<TRIPOS>BOND
     1     1     2 2   
     2     2     3 1   
     3     2     4 1   
     4     3    20 1   
     5     3    21 1   
     6     4     5 2   
     7     4     8 1   
     8     5     6 1   
     9     5     9 1   
    10     6     7 1   
    11     6    12 1   
    12     7     8 2   
    13     8    22 1   
    14     9    10 2   
    15    10    11 1   
    16    10    23 1   
    17    11    12 2   
    18    11    24 1   
    19    12    13 1   
    20    13    14 ar  
    21    13    19 ar  
    22    14    15 ar  
    23    14    25 1   
    24    15    16 ar  
    25    15    26 1   
    26    16    17 ar  
    27    16    27 1   
    28    17    18 1   
    29    17    19 ar  
    30    18    28 1   
    31    18    29 1   
    32    18    30 1   
    33    19    31 1   
@<TRIPOS>SUBSTRUCTURE
     1 CU8         1 TEMP              0 ****  ****    0 ROOT
