@<TRIPOS>MOLECULE
CU9
   96   102     1     0     0
SMALL
No Charge or Current Charge


@<TRIPOS>ATOM
      1 N1          -4.8320     2.8590    -0.7910 n4         1 CU9      -0.497000
      2 C2          -5.9910     2.5270     0.1770 c6         1 CU9       0.103600
      3 C3          -6.4860     1.0710     0.0480 c6         1 CU9      -0.054100
      4 C4          -5.3750     0.0550    -0.2440 ca         1 CU9      -0.040300
      5 C5          -4.0410     0.4610    -0.4910 ca         1 CU9      -0.171300
      6 C6          -3.6270     1.9390    -0.4300 c6         1 CU9       0.186600
      7 C7          -5.7150    -1.3090    -0.3190 ca         1 CU9      -0.187000
      8 C8          -4.7360    -2.2800    -0.6240 ca         1 CU9       0.164100
      9 C9          -3.4060    -1.8710    -0.8470 ca         1 CU9       0.092100
     10 C10         -3.0660    -0.5060    -0.7860 ca         1 CU9      -0.058000
     11 O11         -2.4350    -2.8090    -1.1230 os         1 CU9      -0.228200
     12 C12         -1.2510    -2.8110    -0.4240 ca         1 CU9       0.082100
     13 C13         -1.1730    -3.4210     0.8450 ca         1 CU9       0.179100
     14 C14          0.0460    -3.3750     1.5530 ca         1 CU9      -0.188000
     15 C15          1.1590    -2.7120     1.0080 ca         1 CU9      -0.083000
     16 C16          1.0770    -2.0900    -0.2590 ca         1 CU9      -0.138300
     17 C17         -0.1330    -2.1630    -0.9720 ca         1 CU9      -0.089000
     18 C18          2.2200    -1.2800    -0.8780 c3         1 CU9      -0.035100
     19 C19          3.5480    -1.1850    -0.0580 c6         1 CU9       0.212600
     20 N20          4.6150    -2.2390    -0.4670 n4         1 CU9      -0.503000
     21 C21          5.1690    -1.8550    -1.8620 c6         1 CU9       0.104600
     22 C22          5.8230    -0.4590    -1.9010 c6         1 CU9      -0.058100
     23 C23          5.1440     0.5850    -1.0070 ca         1 CU9      -0.019300
     24 C24          4.1060     0.2410    -0.1160 ca         1 CU9      -0.197300
     25 C25          5.6170     1.9050    -1.0390 ca         1 CU9      -0.198000
     26 C26          5.0910     2.8840    -0.1700 ca         1 CU9       0.191100
     27 C27          4.0830     2.5410     0.7590 ca         1 CU9       0.025100
     28 C28          3.5670     1.2130     0.7550 ca         1 CU9       0.160100
     29 O29          2.5420     0.8220     1.5920 os         1 CU9      -0.272200
     30 C30          1.2120     1.1220     1.3610 ca         1 CU9       0.139100
     31 C31          0.2420     0.5170     2.1760 ca         1 CU9      -0.126000
     32 C32         -1.1180     0.8440     2.0290 ca         1 CU9      -0.067500
     33 C33         -1.5200     1.7890     1.0640 ca         1 CU9      -0.110300
     34 C34         -0.5480     2.3750     0.2290 ca         1 CU9      -0.067500
     35 C35          0.8100     2.0420     0.3710 ca         1 CU9      -0.126000
     36 C36         -2.9780     2.2300     0.9610 c3         1 CU9      -0.033100
     37 O37         -5.0390    -3.6290    -0.7040 os         1 CU9      -0.312100
     38 C38         -6.3610    -4.1400    -0.4610 c3         1 CU9       0.137900
     39 O39         -2.3000    -4.0420     1.3580 os         1 CU9      -0.303100
     40 O40          5.5640     4.1870    -0.1730 os         1 CU9      -0.304100
     41 C41          6.5920     4.6390    -1.0730 c3         1 CU9       0.133900
     42 O42          3.6540     3.5380     1.6310 os         1 CU9      -0.335100
     43 C43         -5.2520     2.6080    -2.2520 c3         1 CU9       0.075400
     44 C44          5.7460    -2.2620     0.5750 c3         1 CU9       0.071900
     45 C45          4.0120    -3.6530    -0.5280 c3         1 CU9       0.071900
     46 C46          3.1930     3.2740     2.9700 c3         1 CU9       0.142900
     47 C47         -4.4740     4.3520    -0.6820 c3         1 CU9       0.075400
     48 C48         -2.3170    -4.6600     2.6560 c3         1 CU9       0.135900
     49 H2          -5.6110     2.7150     1.1850 hx         1 CU9       0.093700
     50 H2A         -6.8000     3.2380    -0.0160 hx         1 CU9       0.093700
     51 H3          -7.0260     0.7920     0.9630 hc         1 CU9       0.089700
     52 H3A         -7.2240     1.0230    -0.7640 hc         1 CU9       0.089700
     53 H6          -2.8700     2.1480    -1.1920 hx         1 CU9       0.095700
     54 H7          -6.7470    -1.5950    -0.1430 ha         1 CU9       0.137000
     55 H10         -2.0420    -0.1950    -0.9700 ha         1 CU9       0.139000
     56 H14          0.1470    -3.8350     2.5320 ha         1 CU9       0.136000
     57 H15          2.0700    -2.6860     1.5980 ha         1 CU9       0.095000
     58 H17         -0.2200    -1.6870    -1.9470 ha         1 CU9       0.126000
     59 H18          2.4230    -1.6530    -1.8870 hc         1 CU9       0.075700
     60 H18A         1.8400    -0.2660    -1.0460 hc         1 CU9       0.075700
     61 H19          3.3080    -1.3960     0.9850 hx         1 CU9       0.106700
     62 H21          5.8810    -2.6320    -2.1600 hx         1 CU9       0.096700
     63 H21A         4.3250    -1.8980    -2.5560 hx         1 CU9       0.096700
     64 H22          6.8700    -0.5570    -1.5840 hc         1 CU9       0.092700
     65 H22A         5.8560    -0.1050    -2.9400 hc         1 CU9       0.092700
     66 H25          6.4150     2.1490    -1.7340 ha         1 CU9       0.143000
     67 H31          0.5480    -0.1960     2.9360 ha         1 CU9       0.137500
     68 H32         -1.8540     0.3800     2.6820 ha         1 CU9       0.120000
     69 H34         -0.8420     3.1120    -0.5160 ha         1 CU9       0.120000
     70 H35          1.5390     2.5250    -0.2730 ha         1 CU9       0.137500
     71 H36         -2.9990     3.3000     1.1840 hc         1 CU9       0.065700
     72 H36A        -3.5800     1.7640     1.7500 hc         1 CU9       0.065700
     73 H38         -6.3730    -5.2320    -0.5720 h1         1 CU9       0.055033
     74 H38A        -6.6920    -3.8990     0.5570 h1         1 CU9       0.055033
     75 H38B        -7.0810    -3.7200    -1.1750 h1         1 CU9       0.055033
     76 H41          6.8020     5.7020    -0.9060 h1         1 CU9       0.059033
     77 H41A         7.5240     4.0810    -0.9140 h1         1 CU9       0.059033
     78 H41B         6.2800     4.5150    -2.1180 h1         1 CU9       0.059033
     79 H43         -6.1220     3.2230    -2.4880 hx         1 CU9       0.097367
     80 H43A        -4.4240     2.8690    -2.9140 hx         1 CU9       0.097367
     81 H43B        -5.5020     1.5530    -2.3810 hx         1 CU9       0.097367
     82 H44          5.3370    -2.5530     1.5440 hx         1 CU9       0.094867
     83 H44A         6.5080    -2.9790     0.2650 hx         1 CU9       0.094867
     84 H44B         6.1870    -1.2660     0.6500 hx         1 CU9       0.094867
     85 H45          3.2070    -3.6760    -1.2640 hx         1 CU9       0.094867
     86 H45A         4.7900    -4.3630    -0.8140 hx         1 CU9       0.094867
     87 H45B         3.6170    -3.9190     0.4550 hx         1 CU9       0.094867
     88 H46          3.1900     4.2020     3.5550 h1         1 CU9       0.046367
     89 H46A         2.1680     2.8870     2.9750 h1         1 CU9       0.046367
     90 H46B         3.8500     2.5560     3.4760 h1         1 CU9       0.046367
     91 H47         -4.2690     4.6090     0.3580 hx         1 CU9       0.097367
     92 H47A        -3.5950     4.5590    -1.2960 hx         1 CU9       0.097367
     93 H47B        -5.3170     4.9480    -1.0370 hx         1 CU9       0.097367
     94 H48         -1.5840    -5.4750     2.7110 h1         1 CU9       0.053700
     95 H48A        -2.0910    -3.9270     3.4400 h1         1 CU9       0.053700
     96 H48B        -3.3090    -5.0820     2.8620 h1         1 CU9       0.053700
@<TRIPOS>BOND
     1     1     2 1   
     2     1     6 1   
     3     1    43 1   
     4     1    47 1   
     5     2     3 1   
     6     2    49 1   
     7     2    50 1   
     8     3     4 1   
     9     3    51 1   
    10     3    52 1   
    11     4     5 ar  
    12     4     7 ar  
    13     5     6 1   
    14     5    10 ar  
    15     6    36 1   
    16     6    53 1   
    17     7     8 ar  
    18     7    54 1   
    19     8     9 ar  
    20     8    37 1   
    21     9    10 ar  
    22     9    11 1   
    23    10    55 1   
    24    11    12 1   
    25    12    13 ar  
    26    12    17 ar  
    27    13    14 ar  
    28    13    39 1   
    29    14    15 ar  
    30    14    56 1   
    31    15    16 ar  
    32    15    57 1   
    33    16    17 ar  
    34    16    18 1   
    35    17    58 1   
    36    18    19 1   
    37    18    59 1   
    38    18    60 1   
    39    19    20 1   
    40    19    24 1   
    41    19    61 1   
    42    20    21 1   
    43    20    44 1   
    44    20    45 1   
    45    21    22 1   
    46    21    62 1   
    47    21    63 1   
    48    22    23 1   
    49    22    64 1   
    50    22    65 1   
    51    23    24 ar  
    52    23    25 ar  
    53    24    28 ar  
    54    25    26 ar  
    55    25    66 1   
    56    26    27 ar  
    57    26    40 1   
    58    27    28 ar  
    59    27    42 1   
    60    28    29 1   
    61    29    30 1   
    62    30    31 ar  
    63    30    35 ar  
    64    31    32 ar  
    65    31    67 1   
    66    32    33 ar  
    67    32    68 1   
    68    33    34 ar  
    69    33    36 1   
    70    34    35 ar  
    71    34    69 1   
    72    35    70 1   
    73    36    71 1   
    74    36    72 1   
    75    37    38 1   
    76    38    73 1   
    77    38    74 1   
    78    38    75 1   
    79    39    48 1   
    80    40    41 1   
    81    41    76 1   
    82    41    77 1   
    83    41    78 1   
    84    42    46 1   
    85    43    79 1   
    86    43    80 1   
    87    43    81 1   
    88    44    82 1   
    89    44    83 1   
    90    44    84 1   
    91    45    85 1   
    92    45    86 1   
    93    45    87 1   
    94    46    88 1   
    95    46    89 1   
    96    46    90 1   
    97    47    91 1   
    98    47    92 1   
    99    47    93 1   
   100    48    94 1   
   101    48    95 1   
   102    48    96 1   
@<TRIPOS>SUBSTRUCTURE
     1 CU9         1 TEMP              0 ****  ****    0 ROOT
