@<TRIPOS>MOLECULE
CU9
   96   102     1     0     0
SMALL
bcc


@<TRIPOS>ATOM
      1 N1          -5.5320     2.8930    -0.7220 n4         1 CU9      -0.609800
      2 C2          -5.7190     2.9210     0.7670 c6         1 CU9       0.131800
      3 C3          -5.5570     1.5590     1.4190 c6         1 CU9      -0.054100
      4 C4          -4.5340     0.6680     0.7720 ca         1 CU9      -0.040300
      5 C5          -3.9880     0.9920    -0.4570 ca         1 CU9      -0.171300
      6 C6          -4.1540     2.3550    -1.0610 c6         1 CU9       0.214800
      7 C7          -4.2290    -0.5610     1.3580 ca         1 CU9      -0.205000
      8 C8          -3.4280    -1.4860     0.7060 ca         1 CU9       0.164100
      9 C9          -2.9630    -1.1830    -0.5860 ca         1 CU9       0.092100
     10 C10         -3.2150     0.0520    -1.1360 ca         1 CU9      -0.076000
     11 O11         -2.3870    -2.1480    -1.3600 os         1 CU9      -0.228200
     12 C12         -1.1810    -2.7070    -1.0410 ca         1 CU9       0.082100
     13 C13         -1.1400    -4.1030    -0.9230 ca         1 CU9       0.179100
     14 C14          0.1010    -4.7050    -0.7690 ca         1 CU9      -0.206000
     15 C15          1.2620    -3.9420    -0.7530 ca         1 CU9      -0.101000
     16 C16          1.2320    -2.5570    -0.8510 ca         1 CU9      -0.138300
     17 C17         -0.0240    -1.9560    -0.9830 ca         1 CU9      -0.107000
     18 C18          2.4660    -1.6910    -0.9760 c3         1 CU9      -0.035100
     19 C19          3.3350    -1.4310     0.2810 c6         1 CU9       0.240800
     20 N20          4.4260    -2.5020     0.5160 n4         1 CU9      -0.615800
     21 C21          5.6800    -1.8950     1.0840 c6         1 CU9       0.132800
     22 C22          6.2490    -0.8410     0.1690 c6         1 CU9      -0.058100
     23 C23          5.2510     0.2690     0.0530 ca         1 CU9      -0.019300
     24 C24          3.9090    -0.0270     0.2300 ca         1 CU9      -0.197300
     25 C25          5.6830     1.5840    -0.0900 ca         1 CU9      -0.216000
     26 C26          4.7820     2.6320     0.0030 ca         1 CU9       0.191100
     27 C27          3.4360     2.3610     0.2960 ca         1 CU9       0.025100
     28 C28          3.0160     1.0420     0.3950 ca         1 CU9       0.160100
     29 O29          1.7520     0.7100     0.7660 os         1 CU9      -0.272200
     30 C30          0.6380     1.4030     0.3680 ca         1 CU9       0.139100
     31 C31         -0.3370     1.5920     1.3340 ca         1 CU9      -0.144000
     32 C32         -1.5130     2.2320     0.9900 ca         1 CU9      -0.085500
     33 C33         -1.7380     2.6800    -0.3080 ca         1 CU9      -0.110300
     34 C34         -0.7500     2.4660    -1.2620 ca         1 CU9      -0.085500
     35 C35          0.4390     1.8280    -0.9350 ca         1 CU9      -0.144000
     36 C36         -3.0400     3.3520    -0.6420 c3         1 CU9      -0.033100
     37 O37         -3.0900    -2.6890     1.1820 os         1 CU9      -0.288900
     38 C38         -3.5540    -3.0690     2.4630 c3         1 CU9       0.114700
     39 O39         -2.3080    -4.7520    -1.0050 os         1 CU9      -0.279900
     40 O40          5.0980     3.9280    -0.1110 os         1 CU9      -0.280900
     41 C41          6.4410     4.2690    -0.4000 c3         1 CU9       0.110700
     42 O42          2.5720     3.3870     0.4850 os         1 CU9      -0.311900
     43 C43         -6.5730     2.0320    -1.3550 c3         1 CU9       0.103600
     44 C44          3.9210    -3.4750     1.5300 c3         1 CU9       0.100100
     45 C45          4.8190    -3.2640    -0.7040 c3         1 CU9       0.100100
     46 C46          2.4900     3.8470     1.8290 c3         1 CU9       0.119700
     47 C47         -5.7010     4.2730    -1.2570 c3         1 CU9       0.103600
     48 C48         -2.2990    -6.1600    -0.8740 c3         1 CU9       0.112700
     49 H2          -5.0070     3.6380     1.1690 hx         1 CU9       0.093700
     50 H2A         -6.7150     3.3190     0.9540 hx         1 CU9       0.093700
     51 H3          -5.3140     1.7320     2.4690 hc         1 CU9       0.089700
     52 H3A         -6.5150     1.0320     1.4200 hc         1 CU9       0.089700
     53 H6          -4.1430     2.2720    -2.1500 hx         1 CU9       0.095700
     54 H7          -4.6600    -0.7930     2.3240 ha         1 CU9       0.155000
     55 H10         -2.8320     0.2730    -2.1240 ha         1 CU9       0.157000
     56 H14          0.1910    -5.7790    -0.6880 ha         1 CU9       0.154000
     57 H15          2.1940    -4.4880    -0.6970 ha         1 CU9       0.113000
     58 H17         -0.1000    -0.8800    -1.0990 ha         1 CU9       0.144000
     59 H18          3.0870    -2.0460    -1.7980 hc         1 CU9       0.075700
     60 H18A         2.1310    -0.7150    -1.3210 hc         1 CU9       0.075700
     61 H19          2.7000    -1.5130     1.1630 hx         1 CU9       0.106700
     62 H21          5.4240    -1.4610     2.0510 hx         1 CU9       0.096700
     63 H21A         6.3780    -2.7130     1.2490 hx         1 CU9       0.096700
     64 H22          7.1650    -0.4690     0.6310 hc         1 CU9       0.092700
     65 H22A         6.5470    -1.2490    -0.7990 hc         1 CU9       0.092700
     66 H25          6.7400     1.7640    -0.2340 ha         1 CU9       0.161000
     67 H31         -0.1700     1.2520     2.3470 ha         1 CU9       0.155500
     68 H32         -2.2660     2.3880     1.7540 ha         1 CU9       0.138000
     69 H34         -0.9020     2.8000    -2.2810 ha         1 CU9       0.138000
     70 H35          1.2000     1.6840    -1.6920 ha         1 CU9       0.155500
     71 H36         -2.8980     4.0780    -1.4430 hc         1 CU9       0.065700
     72 H36A        -3.3490     3.9150     0.2390 hc         1 CU9       0.065700
     73 H38         -3.1600    -4.0640     2.6480 h1         1 CU9       0.055033
     74 H38A        -3.1920    -2.3930     3.2410 h1         1 CU9       0.055033
     75 H38B        -4.6450    -3.1060     2.5050 h1         1 CU9       0.055033
     76 H41          6.4710     5.3510    -0.4920 h1         1 CU9       0.059033
     77 H41A         7.1190     3.9630     0.4010 h1         1 CU9       0.059033
     78 H41B         6.7770     3.8220    -1.3390 h1         1 CU9       0.059033
     79 H43         -7.5530     2.3850    -1.0460 hx         1 CU9       0.097367
     80 H43A        -6.4780     2.1060    -2.4350 hx         1 CU9       0.097367
     81 H43B        -6.4460     0.9970    -1.0560 hx         1 CU9       0.097367
     82 H44          2.9770    -3.8970     1.2040 hx         1 CU9       0.094867
     83 H44A         4.6520    -4.2700     1.6500 hx         1 CU9       0.094867
     84 H44B         3.7780    -2.9600     2.4750 hx         1 CU9       0.094867
     85 H45          5.1450    -2.5950    -1.4950 hx         1 CU9       0.094867
     86 H45A         5.6370    -3.9270    -0.4370 hx         1 CU9       0.094867
     87 H45B         3.9930    -3.8630    -1.0620 hx         1 CU9       0.094867
     88 H46          1.7750     4.6670     1.8420 h1         1 CU9       0.046367
     89 H46A         2.1340     3.0630     2.5020 h1         1 CU9       0.046367
     90 H46B         3.4540     4.2110     2.1910 h1         1 CU9       0.046367
     91 H47         -5.0450     4.9620    -0.7350 hx         1 CU9       0.097367
     92 H47A        -5.4680     4.2740    -2.3190 hx         1 CU9       0.097367
     93 H47B        -6.7310     4.5820    -1.1070 hx         1 CU9       0.097367
     94 H48         -1.7230    -6.6420    -1.6680 h1         1 CU9       0.053700
     95 H48A        -1.8990    -6.4760     0.0930 h1         1 CU9       0.053700
     96 H48B        -3.3350    -6.4820    -0.9480 h1         1 CU9       0.053700
@<TRIPOS>BOND
     1     1     2 1   
     2     1     6 1   
     3     1    43 1   
     4     1    47 1   
     5     2     3 1   
     6     2    49 1   
     7     2    50 1   
     8     3     4 1   
     9     3    51 1   
    10     3    52 1   
    11     4     5 ar  
    12     4     7 ar  
    13     5     6 1   
    14     5    10 ar  
    15     6    36 1   
    16     6    53 1   
    17     7     8 ar  
    18     7    54 1   
    19     8     9 ar  
    20     8    37 1   
    21     9    10 ar  
    22     9    11 1   
    23    10    55 1   
    24    11    12 1   
    25    12    13 ar  
    26    12    17 ar  
    27    13    14 ar  
    28    13    39 1   
    29    14    15 ar  
    30    14    56 1   
    31    15    16 ar  
    32    15    57 1   
    33    16    17 ar  
    34    16    18 1   
    35    17    58 1   
    36    18    19 1   
    37    18    59 1   
    38    18    60 1   
    39    19    20 1   
    40    19    24 1   
    41    19    61 1   
    42    20    21 1   
    43    20    44 1   
    44    20    45 1   
    45    21    22 1   
    46    21    62 1   
    47    21    63 1   
    48    22    23 1   
    49    22    64 1   
    50    22    65 1   
    51    23    24 ar  
    52    23    25 ar  
    53    24    28 ar  
    54    25    26 ar  
    55    25    66 1   
    56    26    27 ar  
    57    26    40 1   
    58    27    28 ar  
    59    27    42 1   
    60    28    29 1   
    61    29    30 1   
    62    30    31 ar  
    63    30    35 ar  
    64    31    32 ar  
    65    31    67 1   
    66    32    33 ar  
    67    32    68 1   
    68    33    34 ar  
    69    33    36 1   
    70    34    35 ar  
    71    34    69 1   
    72    35    70 1   
    73    36    71 1   
    74    36    72 1   
    75    37    38 1   
    76    38    73 1   
    77    38    74 1   
    78    38    75 1   
    79    39    48 1   
    80    40    41 1   
    81    41    76 1   
    82    41    77 1   
    83    41    78 1   
    84    42    46 1   
    85    43    79 1   
    86    43    80 1   
    87    43    81 1   
    88    44    82 1   
    89    44    83 1   
    90    44    84 1   
    91    45    85 1   
    92    45    86 1   
    93    45    87 1   
    94    46    88 1   
    95    46    89 1   
    96    46    90 1   
    97    47    91 1   
    98    47    92 1   
    99    47    93 1   
   100    48    94 1   
   101    48    95 1   
   102    48    96 1   
@<TRIPOS>SUBSTRUCTURE
     1 CU9         1 TEMP              0 ****  ****    0 ROOT
