@<TRIPOS>MOLECULE
CUC
   25    25     1     0     0
SMALL
No Charge or Current Charge


@<TRIPOS>ATOM
      1 N            1.1450     1.5860    -1.2650 n8         1 CUC      -1.002200
      2 CA           1.0900     0.8410     0.0490 c3         1 CUC       0.018500
      3 C            2.2760    -0.1790     0.3220 c          1 CUC       0.691000
      4 O            2.8070    -0.7320    -0.6340 o          1 CUC      -0.736000
      5 C1          -0.3090     0.1820     0.3220 c6         1 CUC      -0.028700
      6 C2          -1.4510     1.2340     0.4490 c6         1 CUC      -0.070400
      7 C3          -2.8050     0.5640     0.7940 c6         1 CUC      -0.072900
      8 C4          -3.1740    -0.5230    -0.2450 c6         1 CUC      -0.069400
      9 C5          -2.0470    -1.5760    -0.3750 c6         1 CUC      -0.072900
     10 C6          -0.6910    -0.9110    -0.7220 c6         1 CUC      -0.070400
     11 OXT          2.7020    -0.2780     1.4650 o          1 CUC      -0.736000
     12 HN           2.0550     2.0570    -1.3390 hn         1 CUC       0.382000
     13 HNA          1.1880     0.8910    -2.0190 hn         1 CUC       0.382000
     14 HA           1.2050     1.6130     0.8220 h1         1 CUC       0.032700
     15 H1          -0.2110    -0.3110     1.3000 hc         1 CUC       0.054700
     16 H2          -1.1990     1.9690     1.2260 hc         1 CUC       0.042700
     17 H2A         -1.5540     1.7970    -0.4890 hc         1 CUC       0.042700
     18 H3          -2.7510     0.1160     1.7960 hc         1 CUC       0.021700
     19 H3A         -3.5970     1.3240     0.8350 hc         1 CUC       0.021700
     20 H4          -4.1120    -1.0140     0.0480 hc         1 CUC       0.019700
     21 H4A         -3.3580    -0.0540    -1.2210 hc         1 CUC       0.019700
     22 H5          -1.9550    -2.1370     0.5650 hc         1 CUC       0.021700
     23 H5A         -2.3120    -2.3080    -1.1500 hc         1 CUC       0.021700
     24 H6          -0.7500    -0.4720    -1.7270 hc         1 CUC       0.042700
     25 H6A          0.0880    -1.6840    -0.7650 hc         1 CUC       0.042700
@<TRIPOS>BOND
     1     1     2 1   
     2     1    12 1   
     3     1    13 1   
     4     2     3 1   
     5     2     5 1   
     6     2    14 1   
     7     3     4 1   
     8     3    11 1   
     9     5     6 1   
    10     5    10 1   
    11     5    15 1   
    12     6     7 1   
    13     6    16 1   
    14     6    17 1   
    15     7     8 1   
    16     7    18 1   
    17     7    19 1   
    18     8     9 1   
    19     8    20 1   
    20     8    21 1   
    21     9    10 1   
    22     9    22 1   
    23     9    23 1   
    24    10    24 1   
    25    10    25 1   
@<TRIPOS>SUBSTRUCTURE
     1 CUC         1 TEMP              0 ****  ****    0 ROOT
