@<TRIPOS>MOLECULE
CUC
   25    25     1     0     0
SMALL
bcc


@<TRIPOS>ATOM
      1 N            1.0420     1.4870    -1.2670 n8         1 CUC      -0.891800
      2 CA           1.0590     0.8470     0.0420 c3         1 CUC       0.018500
      3 C            2.1940    -0.1870     0.2410 c          1 CUC       0.901600
      4 O            2.7760    -0.6110    -0.7790 o          1 CUC      -0.841300
      5 C1          -0.2960     0.1850     0.3490 c6         1 CUC      -0.028700
      6 C2          -1.4190     1.2170     0.4460 c6         1 CUC      -0.070400
      7 C3          -2.7650     0.5740     0.7650 c6         1 CUC      -0.072900
      8 C4          -3.1180    -0.5080    -0.2490 c6         1 CUC      -0.069400
      9 C5          -2.0070    -1.5480    -0.3430 c6         1 CUC      -0.072900
     10 C6          -0.6630    -0.9000    -0.6650 c6         1 CUC      -0.070400
     11 OXT          2.4200    -0.5360     1.4190 o          1 CUC      -0.841300
     12 HN           1.7690     2.1920    -1.2940 hn         1 CUC       0.326800
     13 HNA          1.3390     0.7950    -1.9460 hn         1 CUC       0.326800
     14 HA           1.1960     1.6330     0.7940 h1         1 CUC       0.032700
     15 H1          -0.1990    -0.2930     1.3310 hc         1 CUC       0.054700
     16 H2          -1.1720     1.9570     1.2140 hc         1 CUC       0.042700
     17 H2A         -1.4830     1.7640    -0.5000 hc         1 CUC       0.042700
     18 H3          -2.7260     0.1290     1.7660 hc         1 CUC       0.021700
     19 H3A         -3.5490     1.3350     0.7970 hc         1 CUC       0.021700
     20 H4          -4.0660    -0.9850     0.0160 hc         1 CUC       0.019700
     21 H4A         -3.2670    -0.0480    -1.2320 hc         1 CUC       0.019700
     22 H5          -1.9330    -2.0850     0.6090 hc         1 CUC       0.021700
     23 H5A         -2.2510    -2.2980    -1.1010 hc         1 CUC       0.021700
     24 H6          -0.7130    -0.4560    -1.6660 hc         1 CUC       0.042700
     25 H6A          0.1140    -1.6670    -0.7060 hc         1 CUC       0.042700
@<TRIPOS>BOND
     1     1     2 1   
     2     1    12 1   
     3     1    13 1   
     4     2     3 1   
     5     2     5 1   
     6     2    14 1   
     7     3     4 1   
     8     3    11 1   
     9     5     6 1   
    10     5    10 1   
    11     5    15 1   
    12     6     7 1   
    13     6    16 1   
    14     6    17 1   
    15     7     8 1   
    16     7    18 1   
    17     7    19 1   
    18     8     9 1   
    19     8    20 1   
    20     8    21 1   
    21     9    10 1   
    22     9    22 1   
    23     9    23 1   
    24    10    24 1   
    25    10    25 1   
@<TRIPOS>SUBSTRUCTURE
     1 CUC         1 TEMP              0 ****  ****    0 ROOT
