@<TRIPOS>MOLECULE
CUD
   23    23     1     0     0
SMALL
No Charge or Current Charge


@<TRIPOS>ATOM
      1 C2           1.1690   -13.1700     4.9700 c          1 CUD       0.718400
      2 C4           1.6000   -14.5310     3.1580 cc         1 CUD       0.780500
      3 C5           2.6530   -13.7250     2.7030 cc         1 CUD      -0.534600
      4 C6           2.9620   -12.5980     3.4260 cd         1 CUD       0.040600
      5 N            0.5790    -9.7470     4.4440 n8         1 CUD      -0.994200
      6 CA           2.0700    -9.7660     4.7120 c3         1 CUD      -0.005500
      7 N1           2.2210   -12.3110     4.5670 n          1 CUD      -0.272000
      8 N4           1.2860   -15.6070     2.4730 nv         1 CUD      -1.058200
      9 N3           0.8890   -14.3060     4.2030 nd         1 CUD      -0.792100
     10 O2           0.4960   -12.9790     5.9720 o          1 CUD      -0.553000
     11 C            2.6380    -8.5610     5.5590 c          1 CUD       0.697000
     12 O            2.1190    -8.3160     6.6400 o          1 CUD      -0.726000
     13 OXT          3.5070    -7.8610     5.0580 o          1 CUD      -0.726000
     14 HA           2.5570    -9.7070     3.7290 h1         1 CUD       0.032700
     15 H6           3.7500   -11.8830     3.1920 h4         1 CUD       0.203000
     16 H5           3.1990   -13.9990     1.8080 ha         1 CUD       0.186000
     17 HN4          0.3680   -15.9630     2.6990 hn         1 CUD       0.487500
     18 HN4A         1.5190   -15.5790     1.4900 hn         1 CUD       0.487500
     19 CB           2.5310   -11.0980     5.3670 c3         1 CUD       0.098000
     20 HN           0.0850    -9.6920     5.3440 hn         1 CUD       0.391000
     21 HB           3.6190   -11.0560     5.5110 h1         1 CUD       0.073200
     22 HBA          2.0900   -11.1790     6.3690 h1         1 CUD       0.073200
     23 HNA          0.3290    -8.8600     3.9890 hn         1 CUD       0.391000
@<TRIPOS>BOND
     1     1     7 1   
     2     1     9 1   
     3     1    10 2   
     4     2     3 1   
     5     2     8 1   
     6     2     9 2   
     7     3     4 2   
     8     3    16 1   
     9     4     7 1   
    10     4    15 1   
    11     5     6 1   
    12     5    20 1   
    13     5    23 1   
    14     6    11 1   
    15     6    14 1   
    16     6    19 1   
    17     7    19 1   
    18     8    17 1   
    19     8    18 1   
    20    11    12 1   
    21    11    13 1   
    22    19    21 1   
    23    19    22 1   
@<TRIPOS>SUBSTRUCTURE
     1 CUD         1 TEMP              0 ****  ****    0 ROOT
