@<TRIPOS>MOLECULE
CUD
   23    23     1     0     0
SMALL
abcg2


@<TRIPOS>ATOM
      1 C2           1.1990   -13.1130     4.9990 c          1 CUD       0.718400
      2 C4           1.5330   -14.4210     3.1030 cc         1 CUD       0.780500
      3 C5           2.6090   -13.5990     2.6530 cc         1 CUD      -0.534600
      4 C6           2.9120   -12.5420     3.4370 cd         1 CUD       0.040600
      5 N            0.5960    -9.9050     4.5870 n8         1 CUD      -0.994200
      6 CA           2.0360    -9.8040     4.7200 c3         1 CUD      -0.005500
      7 N1           2.2470   -12.2810     4.5800 n          1 CUD      -0.272000
      8 N4           1.1670   -15.4850     2.3830 nv         1 CUD      -1.058200
      9 N3           0.8790   -14.1710     4.2190 nd         1 CUD      -0.792100
     10 O2           0.6150   -12.8770     6.0480 o          1 CUD      -0.553000
     11 C            2.5770    -8.5790     5.5140 c          1 CUD       0.697000
     12 O            1.7420    -7.7700     5.9570 o          1 CUD      -0.726000
     13 OXT          3.8200    -8.5170     5.6220 o          1 CUD      -0.726000
     14 HA           2.4490    -9.7200     3.7060 h1         1 CUD       0.032700
     15 H6           3.7100   -11.8560     3.1830 h4         1 CUD       0.203000
     16 H5           3.1540   -13.8020     1.7440 ha         1 CUD       0.186000
     17 HN4          0.4050   -16.0640     2.6920 hn         1 CUD       0.487500
     18 HN4A         1.6190   -15.7180     1.5170 hn         1 CUD       0.487500
     19 CB           2.6010   -11.0840     5.3360 c3         1 CUD       0.098000
     20 HN           0.1830    -9.8880     5.5130 hn         1 CUD       0.391000
     21 HB           3.6860   -11.0190     5.3790 h1         1 CUD       0.073200
     22 HBA          2.2390   -11.2140     6.3540 h1         1 CUD       0.073200
     23 HNA          0.2550    -9.0640     4.1390 hn         1 CUD       0.391000
@<TRIPOS>BOND
     1     1     7 1   
     2     1     9 1   
     3     1    10 2   
     4     2     3 1   
     5     2     8 1   
     6     2     9 2   
     7     3     4 2   
     8     3    16 1   
     9     4     7 1   
    10     4    15 1   
    11     5     6 1   
    12     5    20 1   
    13     5    23 1   
    14     6    11 1   
    15     6    14 1   
    16     6    19 1   
    17     7    19 1   
    18     8    17 1   
    19     8    18 1   
    20    11    12 1   
    21    11    13 1   
    22    19    21 1   
    23    19    22 1   
@<TRIPOS>SUBSTRUCTURE
     1 CUD         1 TEMP              0 ****  ****    0 ROOT
