@<TRIPOS>MOLECULE
CUE
   28    31     1     0     0
SMALL
abcg2


@<TRIPOS>ATOM
      1 OAA          0.0630     3.0960     0.0560 o          1 CUE      -0.479000
      2 OAC          5.5190    -1.3890    -0.1770 oh         1 CUE      -0.529100
      3 CAD         -3.6070    -1.8990     0.0850 ca         1 CUE      -0.176000
      4 CAE          4.2490     0.6490    -0.1050 ca         1 CUE      -0.211000
      5 CAF         -2.2350    -1.8700     0.0490 ca         1 CUE       0.000000
      6 CAG          3.0260     1.2950    -0.0580 ca         1 CUE      -0.014000
      7 CAH         -3.6700     0.5250     0.1220 ca         1 CUE      -0.246000
      8 CAI          3.1880    -1.5410    -0.1030 ca         1 CUE      -0.141000
      9 OAJ         -1.6850     1.7550     0.0870 os         1 CUE      -0.346200
     10 OAK          0.7560    -1.4540    -0.0280 os         1 CUE      -0.153200
     11 CAL         -4.3310    -0.6970     0.1200 ca         1 CUE       0.200100
     12 CAM          4.3350    -0.7510    -0.1280 ca         1 CUE       0.157100
     13 CAN         -0.3330     1.9580     0.0510 c          1 CUE       0.720300
     14 CAO         -2.2860     0.5400     0.0850 ca         1 CUE       0.229100
     15 CAP          1.9900    -0.8640    -0.0570 ca         1 CUE       0.085100
     16 CAQ         -1.5480    -0.6500     0.0480 ca         1 CUE      -0.176800
     17 CAR          1.8680     0.5260    -0.0330 ca         1 CUE      -0.089800
     18 CAS         -0.1430    -0.4640     0.0120 cc         1 CUE       0.182900
     19 CAT          0.4530     0.7640     0.0120 cd         1 CUE      -0.260400
     20 H1          -6.0730     0.0850     0.1730 ho         1 CUE       0.476000
     21 H2           6.2460    -0.7560    -0.1840 ho         1 CUE       0.470000
     22 H3          -4.1360    -2.8420     0.0840 ha         1 CUE       0.140000
     23 H4           5.1580     1.2380    -0.1260 ha         1 CUE       0.119000
     24 H5          -1.6790    -2.7980     0.0220 ha         1 CUE       0.134000
     25 H6           2.9800     2.3750    -0.0410 ha         1 CUE       0.139000
     26 H7          -4.2210     1.4580     0.1510 ha         1 CUE       0.142000
     27 H8           3.2440    -2.6220    -0.1200 ha         1 CUE       0.149000
     28 OAB         -5.6650    -0.7890     0.1490 oh         1 CUE      -0.520100
@<TRIPOS>BOND
     1     1    13 2   
     2     2    12 1   
     3     2    21 1   
     4     3     5 ar  
     5     3    11 ar  
     6     3    22 1   
     7     4     6 ar  
     8     4    12 ar  
     9     4    23 1   
    10     5    16 ar  
    11     5    24 1   
    12     6    17 ar  
    13     6    25 1   
    14     7    11 ar  
    15     7    14 ar  
    16     7    26 1   
    17     8    12 ar  
    18     8    15 ar  
    19     8    27 1   
    20     9    13 1   
    21     9    14 1   
    22    10    15 1   
    23    10    18 1   
    24    11    28 1   
    25    13    19 1   
    26    14    16 ar  
    27    15    17 ar  
    28    16    18 1   
    29    17    19 1   
    30    18    19 2   
    31    20    28 1   
@<TRIPOS>SUBSTRUCTURE
     1 CUE         1 TEMP              0 ****  ****    0 ROOT
