@<TRIPOS>MOLECULE
CUE
   28    31     1     0     0
SMALL
No Charge or Current Charge


@<TRIPOS>ATOM
      1 OAA          0.2190     3.0470     0.0480 o          1 CUE      -0.479000
      2 OAC          5.6180    -1.3130    -0.1700 oh         1 CUE      -0.529100
      3 CAD         -3.6580    -1.8960     0.0860 ca         1 CUE      -0.176000
      4 CAE          4.2650     0.6720    -0.1020 ca         1 CUE      -0.211000
      5 CAF         -2.2530    -1.8710     0.0460 ca         1 CUE       0.000000
      6 CAG          2.9930     1.2830    -0.0570 ca         1 CUE      -0.014000
      7 CAH         -3.7160     0.5350     0.1230 ca         1 CUE      -0.246000
      8 CAI          3.2380    -1.5580    -0.1060 ca         1 CUE      -0.141000
      9 OAJ         -1.6710     1.7870     0.0830 os         1 CUE      -0.346200
     10 OAK          0.7590    -1.5870    -0.0350 os         1 CUE      -0.153200
     11 CAL         -4.3850    -0.6970     0.1240 ca         1 CUE       0.200100
     12 CAM          4.3840    -0.7380    -0.1260 ca         1 CUE       0.157100
     13 CAN         -0.3050     1.9420     0.0460 c          1 CUE       0.720300
     14 CAO         -2.3150     0.5660     0.0840 ca         1 CUE       0.229100
     15 CAP          1.9840    -0.9380    -0.0610 ca         1 CUE       0.085100
     16 CAQ         -1.5830    -0.6350     0.0450 ca         1 CUE      -0.176800
     17 CAR          1.8770     0.4370    -0.0380 ca         1 CUE      -0.089800
     18 CAS         -0.1430    -0.5310     0.0060 cc         1 CUE       0.182900
     19 CAT          0.4680     0.6830     0.0060 cd         1 CUE      -0.260400
     20 H1          -6.0800     0.1850     0.1850 ho         1 CUE       0.476000
     21 H2           6.2920    -0.6000    -0.1790 ho         1 CUE       0.470000
     22 H3          -4.1830    -2.8470     0.0870 ha         1 CUE       0.140000
     23 H4           5.1540     1.2990    -0.1190 ha         1 CUE       0.119000
     24 H5          -1.6930    -2.8050     0.0170 ha         1 CUE       0.134000
     25 H6           2.8850     2.3650    -0.0380 ha         1 CUE       0.139000
     26 H7          -4.2680     1.4700     0.1530 ha         1 CUE       0.142000
     27 H8           3.3230    -2.6410    -0.1240 ha         1 CUE       0.149000
     28 OAB         -5.7450    -0.7370     0.1620 oh         1 CUE      -0.520100
@<TRIPOS>BOND
     1     1    13 2   
     2     2    12 1   
     3     2    21 1   
     4     3     5 ar  
     5     3    11 ar  
     6     3    22 1   
     7     4     6 ar  
     8     4    12 ar  
     9     4    23 1   
    10     5    16 ar  
    11     5    24 1   
    12     6    17 ar  
    13     6    25 1   
    14     7    11 ar  
    15     7    14 ar  
    16     7    26 1   
    17     8    12 ar  
    18     8    15 ar  
    19     8    27 1   
    20     9    13 1   
    21     9    14 1   
    22    10    15 1   
    23    10    18 1   
    24    11    28 1   
    25    13    19 1   
    26    14    16 ar  
    27    15    17 ar  
    28    16    18 1   
    29    17    19 1   
    30    18    19 2   
    31    20    28 1   
@<TRIPOS>SUBSTRUCTURE
     1 CUE         1 TEMP              0 ****  ****    0 ROOT
