@<TRIPOS>MOLECULE
CUH
   27    28     1     0     0
SMALL
abcg2


@<TRIPOS>ATOM
      1 C10         -0.9860    -0.2270     0.4650 ca         1 CUH       0.209100
      2 C13         -2.6540     1.2760    -1.2020 ca         1 CUH      -0.190000
      3 C01          4.1880    -1.3700    -0.4000 ca         1 CUH      -0.088000
      4 C02          4.3200    -0.2150     0.3620 ca         1 CUH      -0.125500
      5 C03          3.2530     0.6610     0.4820 ca         1 CUH      -0.060000
      6 C04          2.0350     0.3740    -0.1330 ca         1 CUH      -0.154600
      7 C05          1.9070    -0.7880    -0.8910 ca         1 CUH      -0.060000
      8 C06          2.9830    -1.6510    -1.0320 ca         1 CUH      -0.125500
      9 C07          0.9240     1.3580    -0.0420 c          1 CUH       0.613300
     10 O08          1.1660     2.5420     0.0950 o          1 CUH      -0.525100
     11 C09         -0.4750     0.8950    -0.1990 ca         1 CUH      -0.239600
     12 C11         -2.3210    -0.5900     0.2890 ca         1 CUH      -0.128900
     13 C12         -3.1510     0.1440    -0.5550 ca         1 CUH       0.192100
     14 C14         -1.3410     1.6450    -0.9970 ca         1 CUH       0.005000
     15 O15         -4.4260    -0.2080    -0.7560 oh         1 CUH      -0.520100
     16 O16         -2.8050    -1.7040     0.9260 oh         1 CUH      -0.563100
     17 O17         -0.1980    -0.9210     1.2940 oh         1 CUH      -0.514100
     18 H131        -3.2970     1.8490    -1.8550 ha         1 CUH       0.139000
     19 H021         5.2560     0.0050     0.8570 ha         1 CUH       0.115000
     20 H031         3.3620     1.5650     1.0680 ha         1 CUH       0.122500
     21 H051         0.9750    -1.0110    -1.3950 ha         1 CUH       0.122500
     22 H061         2.8820    -2.5440    -1.6350 ha         1 CUH       0.115000
     23 H141        -0.9590     2.5240    -1.5000 ha         1 CUH       0.135000
     24 H151        -4.6200    -1.0360    -0.2990 ho         1 CUH       0.480000
     25 H161        -3.1960    -1.4560     1.7740 ho         1 CUH       0.452000
     26 H171        -0.6690    -1.7000     1.6170 ho         1 CUH       0.480000
     27 H011         5.0240    -2.0490    -0.5030 ha         1 CUH       0.112000
@<TRIPOS>BOND
     1     1    11 ar  
     2     1    12 ar  
     3     1    17 1   
     4     2    13 ar  
     5     2    14 ar  
     6     2    18 1   
     7     3     4 ar  
     8     3     8 ar  
     9     3    27 1   
    10     4     5 ar  
    11     4    19 1   
    12     5     6 ar  
    13     5    20 1   
    14     6     7 ar  
    15     6     9 1   
    16     7     8 ar  
    17     7    21 1   
    18     8    22 1   
    19     9    10 2   
    20     9    11 1   
    21    11    14 ar  
    22    12    13 ar  
    23    12    16 1   
    24    13    15 1   
    25    14    23 1   
    26    15    24 1   
    27    16    25 1   
    28    17    26 1   
@<TRIPOS>SUBSTRUCTURE
     1 CUH         1 TEMP              0 ****  ****    0 ROOT
