@<TRIPOS>MOLECULE
CUH
   27    28     1     0     0
SMALL
No Charge or Current Charge


@<TRIPOS>ATOM
      1 C10         -0.9960    -0.1700     0.5830 ca         1 CUH       0.209100
      2 C13         -2.6330     1.2330    -1.2050 ca         1 CUH      -0.190000
      3 C01          4.2270    -1.3870    -0.5100 ca         1 CUH      -0.088000
      4 C02          4.4230    -0.2060     0.2240 ca         1 CUH      -0.125500
      5 C03          3.3570     0.6890     0.4180 ca         1 CUH      -0.060000
      6 C04          2.0780     0.4100    -0.1140 ca         1 CUH      -0.154600
      7 C05          1.8950    -0.7770    -0.8610 ca         1 CUH      -0.060000
      8 C06          2.9640    -1.6700    -1.0530 ca         1 CUH      -0.125500
      9 C07          0.9420     1.3900     0.0900 c          1 CUH       0.613300
     10 O08          1.1640     2.5580     0.3920 o          1 CUH      -0.525100
     11 C09         -0.4730     0.9330    -0.1150 ca         1 CUH      -0.239600
     12 C11         -2.3280    -0.5840     0.3930 ca         1 CUH      -0.128900
     13 C12         -3.1400     0.1160    -0.5270 ca         1 CUH       0.192100
     14 C14         -1.3070     1.6490    -0.9960 ca         1 CUH       0.005000
     15 O15         -4.4140    -0.2960    -0.7840 oh         1 CUH      -0.520100
     16 O16         -2.8180    -1.6470     1.1280 oh         1 CUH      -0.563100
     17 O17         -0.2530    -0.8470     1.4960 oh         1 CUH      -0.514100
     18 H131        -3.2650     1.7740    -1.9040 ha         1 CUH       0.139000
     19 H021         5.4020     0.0170     0.6420 ha         1 CUH       0.115000
     20 H031         3.5270     1.6000     0.9900 ha         1 CUH       0.122500
     21 H051         0.9290    -1.0130    -1.3010 ha         1 CUH       0.122500
     22 H061         2.8120    -2.5810    -1.6270 ha         1 CUH       0.115000
     23 H141        -0.9240     2.5160    -1.5310 ha         1 CUH       0.135000
     24 H151        -4.4590    -1.2570    -0.5950 ho         1 CUH       0.480000
     25 H161        -3.7340    -1.4500     1.4340 ho         1 CUH       0.452000
     26 H171        -0.8520    -1.5510     1.8290 ho         1 CUH       0.480000
     27 H011         5.0530    -2.0790    -0.6610 ha         1 CUH       0.112000
@<TRIPOS>BOND
     1     1    11 ar  
     2     1    12 ar  
     3     1    17 1   
     4     2    13 ar  
     5     2    14 ar  
     6     2    18 1   
     7     3     4 ar  
     8     3     8 ar  
     9     3    27 1   
    10     4     5 ar  
    11     4    19 1   
    12     5     6 ar  
    13     5    20 1   
    14     6     7 ar  
    15     6     9 1   
    16     7     8 ar  
    17     7    21 1   
    18     8    22 1   
    19     9    10 2   
    20     9    11 1   
    21    11    14 ar  
    22    12    13 ar  
    23    12    16 1   
    24    13    15 1   
    25    14    23 1   
    26    15    24 1   
    27    16    25 1   
    28    17    26 1   
@<TRIPOS>SUBSTRUCTURE
     1 CUH         1 TEMP              0 ****  ****    0 ROOT
