@<TRIPOS>MOLECULE
CUQ
   26    27     1     0     0
SMALL
bcc


@<TRIPOS>ATOM
      1 C10         -0.9440     0.5770     0.3460 ca         1 CUQ      -0.155000
      2 C13         -2.9360    -1.1390    -0.5150 ca         1 CUQ      -0.213000
      3 C01          4.1490     1.3140    -0.2370 ca         1 CUQ      -0.106000
      4 C02          3.0200     1.5550    -1.0070 ca         1 CUQ      -0.140500
      5 C03          1.9010     0.7450    -0.8740 ca         1 CUQ      -0.087500
      6 C04          1.9120    -0.3250     0.0200 ca         1 CUQ      -0.167600
      7 C05          3.0590    -0.5750     0.7740 ca         1 CUQ      -0.087500
      8 C06          4.1660     0.2490     0.6570 ca         1 CUQ      -0.140500
      9 C07          0.7590    -1.2630     0.1330 c          1 CUQ       0.597300
     10 C09         -0.6200    -0.7410     0.0040 ca         1 CUQ      -0.169600
     11 C11         -2.2450     1.0360     0.2680 ca         1 CUQ       0.093100
     12 C12         -3.2570     0.1700    -0.1770 ca         1 CUQ       0.137100
     13 C14         -1.6330    -1.5970    -0.4140 ca         1 CUQ      -0.064000
     14 O08          0.9620    -2.4480     0.3250 o          1 CUQ      -0.521100
     15 O15         -4.4980     0.6720    -0.2450 oh         1 CUQ      -0.468100
     16 O16         -2.6190     2.2870     0.6000 oh         1 CUQ      -0.474100
     17 H101        -0.1750     1.2510     0.7050 ha         1 CUQ       0.142000
     18 H131        -3.7170    -1.8060    -0.8600 ha         1 CUQ       0.138000
     19 H021         3.0080     2.3760    -1.7120 ha         1 CUQ       0.135000
     20 H031         1.0300     0.9360    -1.4860 ha         1 CUQ       0.142500
     21 H051         3.0780    -1.4080     1.4650 ha         1 CUQ       0.142500
     22 H061         5.0450     0.0600     1.2590 ha         1 CUQ       0.135000
     23 H141        -1.4090    -2.6210    -0.6810 ha         1 CUQ       0.152000
     24 H151        -5.1150    -0.0020    -0.5520 ho         1 CUQ       0.425000
     25 H161        -1.8520     2.7980     0.8820 ho         1 CUQ       0.422000
     26 H011         5.0170     1.9530    -0.3340 ha         1 CUQ       0.133000
@<TRIPOS>BOND
     1     1    10 ar  
     2     1    11 ar  
     3     1    17 1   
     4     2    12 ar  
     5     2    13 ar  
     6     2    18 1   
     7     3     4 ar  
     8     3     8 ar  
     9     3    26 1   
    10     4     5 ar  
    11     4    19 1   
    12     5     6 ar  
    13     5    20 1   
    14     6     7 ar  
    15     6     9 1   
    16     7     8 ar  
    17     7    21 1   
    18     8    22 1   
    19     9    10 1   
    20     9    14 2   
    21    10    13 ar  
    22    11    12 ar  
    23    11    16 1   
    24    12    15 1   
    25    13    23 1   
    26    15    24 1   
    27    16    25 1   
@<TRIPOS>SUBSTRUCTURE
     1 CUQ         1 TEMP              0 ****  ****    0 ROOT
