@<TRIPOS>MOLECULE
CUQ
   26    27     1     0     0
SMALL
No Charge or Current Charge


@<TRIPOS>ATOM
      1 C10         -0.9720     0.5790     0.4310 ca         1 CUQ      -0.137000
      2 C13         -2.9830    -1.1130    -0.5680 ca         1 CUQ      -0.195000
      3 C01          4.1710     1.3400    -0.2830 ca         1 CUQ      -0.088000
      4 C02          2.9970     1.5680    -1.0190 ca         1 CUQ      -0.122500
      5 C03          1.8860     0.7220    -0.8590 ca         1 CUQ      -0.069500
      6 C04          1.9360    -0.3600     0.0500 ca         1 CUQ      -0.167600
      7 C05          3.1280    -0.5900     0.7720 ca         1 CUQ      -0.069500
      8 C06          4.2360     0.2590     0.6100 ca         1 CUQ      -0.122500
      9 C07          0.7570    -1.2920     0.2250 c          1 CUQ       0.597300
     10 C09         -0.6480    -0.7490     0.0640 ca         1 CUQ      -0.169600
     11 C11         -2.2860     1.0620     0.2880 ca         1 CUQ       0.093100
     12 C12         -3.2970     0.2100    -0.2190 ca         1 CUQ       0.137100
     13 C14         -1.6690    -1.5920    -0.4230 ca         1 CUQ      -0.046000
     14 O08          0.9360    -2.4750     0.4950 o          1 CUQ      -0.521100
     15 O15         -4.5850     0.6520    -0.3690 oh         1 CUQ      -0.507100
     16 O16         -2.5680     2.3550     0.6500 oh         1 CUQ      -0.513100
     17 H101        -0.2030     1.2300     0.8410 ha         1 CUQ       0.124000
     18 H131        -3.7510    -1.7800    -0.9530 ha         1 CUQ       0.120000
     19 H021         2.9490     2.3990    -1.7200 ha         1 CUQ       0.117000
     20 H031         0.9940     0.9040    -1.4540 ha         1 CUQ       0.124500
     21 H051         3.1940    -1.4250     1.4680 ha         1 CUQ       0.124500
     22 H061         5.1470     0.0760     1.1760 ha         1 CUQ       0.117000
     23 H141        -1.4430    -2.6210    -0.6980 ha         1 CUQ       0.134000
     24 H151        -5.1260    -0.0820    -0.7270 ho         1 CUQ       0.464000
     25 H161        -1.7470     2.7800     0.9770 ho         1 CUQ       0.461000
     26 H011         5.0300     1.9960    -0.4100 ha         1 CUQ       0.115000
@<TRIPOS>BOND
     1     1    10 ar  
     2     1    11 ar  
     3     1    17 1   
     4     2    12 ar  
     5     2    13 ar  
     6     2    18 1   
     7     3     4 ar  
     8     3     8 ar  
     9     3    26 1   
    10     4     5 ar  
    11     4    19 1   
    12     5     6 ar  
    13     5    20 1   
    14     6     7 ar  
    15     6     9 1   
    16     7     8 ar  
    17     7    21 1   
    18     8    22 1   
    19     9    10 1   
    20     9    14 2   
    21    10    13 ar  
    22    11    12 ar  
    23    11    16 1   
    24    12    15 1   
    25    13    23 1   
    26    15    24 1   
    27    16    25 1   
@<TRIPOS>SUBSTRUCTURE
     1 CUQ         1 TEMP              0 ****  ****    0 ROOT
