@<TRIPOS>MOLECULE
CUR
   47    48     1     0     0
SMALL
abcg2


@<TRIPOS>ATOM
      1 O16         -0.7060     1.0360     0.0980 oh         1 CUR      -0.558100
      2 C15         -0.9250    -0.2630     0.1300 ce         1 CUR       0.267100
      3 C17         -2.2990    -0.7100     0.0980 ce         1 CUR      -0.233000
      4 C18         -3.3570     0.1190     0.0540 cf         1 CUR      -0.073200
      5 C19         -4.7550    -0.2760     0.0180 ca         1 CUR      -0.084800
      6 C24         -5.1740    -1.6060    -0.0100 ca         1 CUR      -0.076000
      7 C23         -6.5210    -1.9210    -0.0450 ca         1 CUR      -0.133000
      8 C22         -7.4820    -0.9200    -0.0520 ca         1 CUR       0.139100
      9 O4          -8.7800    -1.2610    -0.0850 oh         1 CUR      -0.529100
     10 C21         -7.0770     0.4250    -0.0240 ca         1 CUR       0.041100
     11 O26         -8.0860     1.3200    -0.0340 os         1 CUR      -0.368100
     12 C27         -7.7700     2.6980    -0.0010 c3         1 CUR       0.156900
     13 C20         -5.7300     0.7340     0.0090 ca         1 CUR      -0.130000
     14 C10          0.1130    -1.1630     0.1890 cf         1 CUR      -0.501200
     15 C9           1.4730    -0.7100     0.2000 c          1 CUR       0.598500
     16 O2           1.7460     0.5080     0.1730 o          1 CUR      -0.614100
     17 C8           2.4990    -1.7550     0.2920 ce         1 CUR      -0.296200
     18 C7           3.8400    -1.6640     0.2190 cf         1 CUR      -0.061200
     19 C1           4.7460    -0.5750    -0.1320 ca         1 CUR      -0.082800
     20 C2           6.0320    -0.6130     0.4330 ca         1 CUR      -0.137000
     21 C3           6.9730     0.3550     0.1400 ca         1 CUR       0.036100
     22 O3           8.2220     0.4160     0.6460 os         1 CUR      -0.368100
     23 C3O          8.6390    -0.5950     1.5420 c3         1 CUR       0.157900
     24 C4           6.6550     1.3780    -0.7710 ca         1 CUR       0.137100
     25 O5           7.5470     2.3290    -1.0960 oh         1 CUR      -0.531100
     26 C5           5.4010     1.3960    -1.3610 ca         1 CUR      -0.136000
     27 C6           4.4520     0.4350    -1.0440 ca         1 CUR      -0.047000
     28 H1           0.2920     1.1460     0.1230 ho         1 CUR       0.536000
     29 H3          -2.4300    -1.7860     0.1150 ha         1 CUR       0.188000
     30 H4          -3.1810     1.1900     0.0460 ha         1 CUR       0.190000
     31 H6          -4.4530    -2.4130    -0.0070 ha         1 CUR       0.119000
     32 H7          -6.8400    -2.9560    -0.0670 ha         1 CUR       0.134000
     33 H8          -9.3370    -0.4720    -0.0920 ho         1 CUR       0.485000
     34 H9          -7.2240     2.9660     0.9070 h1         1 CUR       0.043700
     35 H10         -7.1810     2.9980    -0.8720 h1         1 CUR       0.043700
     36 H11         -8.7160     3.2330    -0.0150 h1         1 CUR       0.043700
     37 H12         -5.4060     1.7670     0.0290 ha         1 CUR       0.120000
     38 H13         -0.1070    -2.2210     0.2170 ha         1 CUR       0.197000
     39 H14          2.1080    -2.7390     0.5220 ha         1 CUR       0.179000
     40 H15          4.3590    -2.5860     0.4660 ha         1 CUR       0.163000
     41 H16          6.2750    -1.4170     1.1170 ha         1 CUR       0.113000
     42 H17          8.0220    -0.6160     2.4440 h1         1 CUR       0.041033
     43 H18          8.6170    -1.5830     1.0750 h1         1 CUR       0.041033
     44 H19          9.6630    -0.3600     1.8210 h1         1 CUR       0.041033
     45 H20          8.3740     2.1920    -0.6170 ho         1 CUR       0.482000
     46 H21          5.1700     2.1720    -2.0800 ha         1 CUR       0.133000
     47 H22          3.4930     0.4690    -1.5360 ha         1 CUR       0.131000
@<TRIPOS>BOND
     1     1     2 1   
     2     1    28 1   
     3     2     3 1   
     4     2    14 2   
     5     3     4 2   
     6     3    29 1   
     7     4     5 1   
     8     4    30 1   
     9     5     6 ar  
    10     5    13 ar  
    11     6     7 ar  
    12     6    31 1   
    13     7     8 ar  
    14     7    32 1   
    15     8     9 1   
    16     8    10 ar  
    17     9    33 1   
    18    10    11 1   
    19    10    13 ar  
    20    11    12 1   
    21    12    34 1   
    22    12    35 1   
    23    12    36 1   
    24    13    37 1   
    25    14    15 1   
    26    14    38 1   
    27    15    16 2   
    28    15    17 1   
    29    17    18 2   
    30    17    39 1   
    31    18    19 1   
    32    18    40 1   
    33    19    20 ar  
    34    19    27 ar  
    35    20    21 ar  
    36    20    41 1   
    37    21    22 1   
    38    21    24 ar  
    39    22    23 1   
    40    23    42 1   
    41    23    43 1   
    42    23    44 1   
    43    24    25 1   
    44    24    26 ar  
    45    25    45 1   
    46    26    27 ar  
    47    26    46 1   
    48    27    47 1   
@<TRIPOS>SUBSTRUCTURE
     1 CUR         1 TEMP              0 ****  ****    0 ROOT
