@<TRIPOS>MOLECULE
CUR
   47    48     1     0     0
SMALL
No Charge or Current Charge


@<TRIPOS>ATOM
      1 O16         -0.6620     1.0320    -0.0210 oh         1 CUR      -0.558100
      2 C15         -0.8870    -0.2920     0.0080 ce         1 CUR       0.267100
      3 C17         -2.2850    -0.7320     0.0350 ce         1 CUR      -0.233000
      4 C18         -3.3880     0.0760     0.0330 cf         1 CUR      -0.073200
      5 C19         -4.8210    -0.2890     0.0580 ca         1 CUR      -0.084800
      6 C24         -5.2450    -1.6350     0.0900 ca         1 CUR      -0.076000
      7 C23         -6.6140    -1.9510     0.1140 ca         1 CUR      -0.133000
      8 C22         -7.5720    -0.9280     0.1060 ca         1 CUR       0.139100
      9 O4          -8.9000    -1.2380     0.1290 oh         1 CUR      -0.529100
     10 C21         -7.1700     0.4220     0.0740 ca         1 CUR       0.041100
     11 O26         -8.1560     1.3960     0.0670 os         1 CUR      -0.368100
     12 C27         -7.8490     2.8030     0.0350 c3         1 CUR       0.156900
     13 C20         -5.7920     0.7360     0.0500 ca         1 CUR      -0.130000
     14 C10          0.1590    -1.1490     0.0120 cf         1 CUR      -0.501200
     15 C9           1.5860    -0.7520    -0.0160 c          1 CUR       0.598500
     16 O2           1.8900     0.4320    -0.0390 o          1 CUR      -0.614100
     17 C8           2.5720    -1.8710     0.0150 ce         1 CUR      -0.296200
     18 C7           3.9370    -1.8110    -0.0610 cf         1 CUR      -0.061200
     19 C1           4.8610    -0.6840    -0.2940 ca         1 CUR      -0.082800
     20 C2           6.0750    -0.6330     0.4220 ca         1 CUR      -0.137000
     21 C3           6.9940     0.4180     0.2000 ca         1 CUR       0.036100
     22 O3           8.1920     0.5160     0.8880 os         1 CUR      -0.368100
     23 C3O          8.5880    -0.4460     1.8840 c3         1 CUR       0.157900
     24 C4           6.6940     1.4090    -0.7560 ca         1 CUR       0.137100
     25 O5           7.5780     2.4250    -0.9770 oh         1 CUR      -0.531100
     26 C5           5.5000     1.3500    -1.4880 ca         1 CUR      -0.136000
     27 C6           4.5890     0.3030    -1.2630 ca         1 CUR      -0.047000
     28 H1           0.3310     1.0740    -0.0310 ho         1 CUR       0.536000
     29 H3          -2.4240    -1.8100     0.0580 ha         1 CUR       0.188000
     30 H4          -3.2110     1.1530     0.0090 ha         1 CUR       0.190000
     31 H6          -4.5240    -2.4480     0.0970 ha         1 CUR       0.119000
     32 H7          -6.9320    -2.9900     0.1390 ha         1 CUR       0.134000
     33 H8          -9.3830    -0.3810     0.1180 ho         1 CUR       0.485000
     34 H9          -7.2600     3.0940     0.9140 h1         1 CUR       0.043700
     35 H10         -7.2830     3.0590    -0.8700 h1         1 CUR       0.043700
     36 H11         -8.7730     3.3940     0.0350 h1         1 CUR       0.043700
     37 H12         -5.4610     1.7710     0.0250 ha         1 CUR       0.120000
     38 H13         -0.0490    -2.2160     0.0350 ha         1 CUR       0.197000
     39 H14          2.1310    -2.8560     0.1530 ha         1 CUR       0.179000
     40 H15          4.4620    -2.7630     0.0480 ha         1 CUR       0.163000
     41 H16          6.2830    -1.4110     1.1510 ha         1 CUR       0.113000
     42 H17          7.8630    -0.4770     2.7070 h1         1 CUR       0.041033
     43 H18          8.6680    -1.4500     1.4470 h1         1 CUR       0.041033
     44 H19          9.5660    -0.1800     2.3030 h1         1 CUR       0.041033
     45 H20          8.3350     2.2670    -0.3690 ho         1 CUR       0.482000
     46 H21          5.2810     2.1090    -2.2350 ha         1 CUR       0.133000
     47 H22          3.6810     0.2520    -1.8570 ha         1 CUR       0.131000
@<TRIPOS>BOND
     1     1     2 1   
     2     1    28 1   
     3     2     3 1   
     4     2    14 2   
     5     3     4 2   
     6     3    29 1   
     7     4     5 1   
     8     4    30 1   
     9     5     6 ar  
    10     5    13 ar  
    11     6     7 ar  
    12     6    31 1   
    13     7     8 ar  
    14     7    32 1   
    15     8     9 1   
    16     8    10 ar  
    17     9    33 1   
    18    10    11 1   
    19    10    13 ar  
    20    11    12 1   
    21    12    34 1   
    22    12    35 1   
    23    12    36 1   
    24    13    37 1   
    25    14    15 1   
    26    14    38 1   
    27    15    16 2   
    28    15    17 1   
    29    17    18 2   
    30    17    39 1   
    31    18    19 1   
    32    18    40 1   
    33    19    20 ar  
    34    19    27 ar  
    35    20    21 ar  
    36    20    41 1   
    37    21    22 1   
    38    21    24 ar  
    39    22    23 1   
    40    23    42 1   
    41    23    43 1   
    42    23    44 1   
    43    24    25 1   
    44    24    26 ar  
    45    25    45 1   
    46    26    27 ar  
    47    26    46 1   
    48    27    47 1   
@<TRIPOS>SUBSTRUCTURE
     1 CUR         1 TEMP              0 ****  ****    0 ROOT
