@<TRIPOS>MOLECULE
CUT
   26    27     1     0     0
SMALL
No Charge or Current Charge


@<TRIPOS>ATOM
      1 C10         -7.9650   -12.0910    31.4770 ca         1 CUT       0.262100
      2 C13         -9.0190   -10.1800    29.7280 ca         1 CUT      -0.206000
      3 C01        -14.4020   -11.9270    32.8130 ca         1 CUT      -0.088000
      4 C02        -13.4000   -10.9440    32.8720 ca         1 CUT      -0.119000
      5 C03        -12.0620   -11.2820    32.6050 ca         1 CUT      -0.069500
      6 C04        -11.7140   -12.6090    32.2630 ca         1 CUT      -0.156600
      7 C05        -12.7250   -13.5930    32.2260 ca         1 CUT      -0.069500
      8 C06        -14.0630   -13.2520    32.4940 ca         1 CUT      -0.119000
      9 C07        -10.2800   -12.9960    31.9910 c          1 CUT       0.618300
     10 O08         -9.8500   -14.0840    32.3630 o          1 CUT      -0.583100
     11 C09         -9.3600   -12.0330    31.2830 ca         1 CUT      -0.330600
     12 C11         -7.1130   -11.1930    30.8260 ca         1 CUT      -0.283000
     13 C12         -7.6410   -10.2350    29.9560 ca         1 CUT       0.216100
     14 C14         -9.8800   -11.0770    30.3810 ca         1 CUT       0.016000
     15 O15         -6.8160    -9.3620    29.3190 oh         1 CUT      -0.528100
     16 O16         -7.4180   -13.0240    32.2970 oh         1 CUT      -0.551100
     17 H131        -9.4250    -9.4440    29.0390 ha         1 CUT       0.136000
     18 H021       -13.6600    -9.9200    33.1320 ha         1 CUT       0.118500
     19 H031       -11.2970   -10.5110    32.6760 ha         1 CUT       0.124500
     20 H051       -12.4760   -14.6240    31.9820 ha         1 CUT       0.124500
     21 H061       -14.8360   -14.0160    32.4550 ha         1 CUT       0.118500
     22 H111        -6.0420   -11.2530    30.9990 ha         1 CUT       0.135000
     23 H141       -10.9470   -11.0270    30.1700 ha         1 CUT       0.124000
     24 H151        -5.8960    -9.5540    29.5990 ho         1 CUT       0.473000
     25 H161        -8.1530   -13.6520    32.5120 ho         1 CUT       0.521000
     26 H011       -15.4370   -11.6640    33.0220 ha         1 CUT       0.116000
@<TRIPOS>BOND
     1     1    11 ar  
     2     1    12 ar  
     3     1    16 1   
     4     2    13 ar  
     5     2    14 ar  
     6     2    17 1   
     7     3     4 ar  
     8     3     8 ar  
     9     3    26 1   
    10     4     5 ar  
    11     4    18 1   
    12     5     6 ar  
    13     5    19 1   
    14     6     7 ar  
    15     6     9 1   
    16     7     8 ar  
    17     7    20 1   
    18     8    21 1   
    19     9    10 2   
    20     9    11 1   
    21    11    14 ar  
    22    12    13 ar  
    23    12    22 1   
    24    13    15 1   
    25    14    23 1   
    26    15    24 1   
    27    16    25 1   
@<TRIPOS>SUBSTRUCTURE
     1 CUT         1 TEMP              0 ****  ****    0 ROOT
