@<TRIPOS>MOLECULE
CUT
   26    27     1     0     0
SMALL
abcg2


@<TRIPOS>ATOM
      1 C10         -7.9690   -12.1700    31.4210 ca         1 CUT       0.262100
      2 C13         -9.0150   -10.1100    29.8400 ca         1 CUT      -0.206000
      3 C01        -14.4240   -12.0230    32.7030 ca         1 CUT      -0.088000
      4 C02        -13.5070   -10.9900    32.8750 ca         1 CUT      -0.119000
      5 C03        -12.1510   -11.2200    32.6790 ca         1 CUT      -0.069500
      6 C04        -11.7000   -12.4950    32.3280 ca         1 CUT      -0.156600
      7 C05        -12.6230   -13.5340    32.1820 ca         1 CUT      -0.069500
      8 C06        -13.9790   -13.2950    32.3530 ca         1 CUT      -0.119000
      9 C07        -10.2510   -12.8060    32.1780 c          1 CUT       0.618300
     10 O08         -9.8130   -13.8270    32.7450 o          1 CUT      -0.583100
     11 C09         -9.3750   -11.9500    31.3950 ca         1 CUT      -0.330600
     12 C11         -7.1110   -11.3460    30.7010 ca         1 CUT      -0.283000
     13 C12         -7.6300   -10.3210    29.9210 ca         1 CUT       0.216100
     14 C14         -9.8570   -10.9140    30.5690 ca         1 CUT       0.016000
     15 O15         -6.8390    -9.4960    29.1990 oh         1 CUT      -0.528100
     16 O16         -7.4310   -13.1690    32.1360 oh         1 CUT      -0.551100
     17 H131        -9.3980    -9.3230    29.2040 ha         1 CUT       0.136000
     18 H021       -13.8480   -10.0030    33.1620 ha         1 CUT       0.118500
     19 H031       -11.4420   -10.4160    32.8230 ha         1 CUT       0.124500
     20 H051       -12.2710   -14.5240    31.9230 ha         1 CUT       0.124500
     21 H061       -14.6890   -14.1010    32.2200 ha         1 CUT       0.118500
     22 H111        -6.0430   -11.5220    30.7460 ha         1 CUT       0.135000
     23 H141       -10.9230   -10.7590    30.4910 ha         1 CUT       0.124000
     24 H151        -5.9060    -9.7230    29.3220 ho         1 CUT       0.473000
     25 H161        -8.1980   -13.6750    32.5210 ho         1 CUT       0.521000
     26 H011       -15.4810   -11.8380    32.8440 ha         1 CUT       0.116000
@<TRIPOS>BOND
     1     1    11 ar  
     2     1    12 ar  
     3     1    16 1   
     4     2    13 ar  
     5     2    14 ar  
     6     2    17 1   
     7     3     4 ar  
     8     3     8 ar  
     9     3    26 1   
    10     4     5 ar  
    11     4    18 1   
    12     5     6 ar  
    13     5    19 1   
    14     6     7 ar  
    15     6     9 1   
    16     7     8 ar  
    17     7    20 1   
    18     8    21 1   
    19     9    10 2   
    20     9    11 1   
    21    11    14 ar  
    22    12    13 ar  
    23    12    22 1   
    24    13    15 1   
    25    14    23 1   
    26    15    24 1   
    27    16    25 1   
@<TRIPOS>SUBSTRUCTURE
     1 CUT         1 TEMP              0 ****  ****    0 ROOT
