@<TRIPOS>MOLECULE
CUW
   24    23     1     0     0
SMALL
No Charge or Current Charge


@<TRIPOS>ATOM
      1 N           -1.5860     1.9170    -0.1080 n8         1 CUW      -1.017200
      2 CA          -1.4030     0.4670    -0.5390 c3         1 CUW      -0.002500
      3 C           -2.6560    -0.4940    -0.4190 c          1 CUW       0.731000
      4 OXT         -2.7990    -1.3570    -1.2760 o          1 CUW      -0.726500
      5 CB          -0.1570    -0.2140     0.1140 c3         1 CUW       0.139300
      6 OB          -0.2290    -0.1130     1.5450 oh         1 CUW      -0.651000
      7 CG           1.1880     0.3910    -0.3730 c3         1 CUW      -0.111400
      8 CD           2.4410    -0.3770     0.1170 c3         1 CUW      -0.074400
      9 CE           3.7570     0.2180    -0.4260 c3         1 CUW       0.144800
     10 NZ           4.9320    -0.5340     0.0510 n8         1 CUW      -0.997200
     11 O           -3.4940    -0.2750     0.4500 o          1 CUW      -0.726500
     12 H1          -1.9610     1.9360     0.8480 hn         1 CUW       0.387000
     13 H2          -0.6720     2.3810    -0.0450 hn         1 CUW       0.387000
     14 H4          -1.1900     0.5070    -1.6160 h1         1 CUW       0.047700
     15 H6          -0.1670    -1.2720    -0.1870 h1         1 CUW       0.090700
     16 H7          -0.2000     0.8430     1.7580 ho         1 CUW       0.419000
     17 H8           1.1940     0.3940    -1.4700 hc         1 CUW       0.029200
     18 H9           1.2640     1.4380    -0.0560 hc         1 CUW       0.029200
     19 H10          2.4710    -0.3680     1.2140 hc         1 CUW       0.049200
     20 H11          2.3630    -1.4270    -0.1940 hc         1 CUW       0.049200
     21 H12          3.7490     0.1950    -1.5240 h1         1 CUW       0.020200
     22 H13          3.8540     1.2620    -0.0990 h1         1 CUW       0.020200
     23 H14          4.8890    -1.4900    -0.3220 hn         1 CUW       0.382500
     24 H15          5.7770    -0.1430    -0.3850 hn         1 CUW       0.382500
@<TRIPOS>BOND
     1     1     2 1   
     2     1    12 1   
     3     1    13 1   
     4     2     3 1   
     5     2     5 1   
     6     2    14 1   
     7     3     4 1   
     8     3    11 1   
     9     5     6 1   
    10     5     7 1   
    11     5    15 1   
    12     6    16 1   
    13     7     8 1   
    14     7    17 1   
    15     7    18 1   
    16     8     9 1   
    17     8    19 1   
    18     8    20 1   
    19     9    10 1   
    20     9    21 1   
    21     9    22 1   
    22    10    23 1   
    23    10    24 1   
@<TRIPOS>SUBSTRUCTURE
     1 CUW         1 TEMP              0 ****  ****    0 ROOT
