@<TRIPOS>MOLECULE
CUW
   24    23     1     0     0
SMALL
abcg2


@<TRIPOS>ATOM
      1 N           -1.5040     1.8630    -0.0930 n8         1 CUW      -1.017200
      2 CA          -1.3440     0.5050    -0.5820 c3         1 CUW      -0.002500
      3 C           -2.6160    -0.3300    -0.3010 c          1 CUW       0.731000
      4 OXT         -2.6960    -1.4140    -0.9120 o          1 CUW      -0.726500
      5 CB          -0.1280    -0.2490    -0.0110 c3         1 CUW       0.139300
      6 OB          -0.2300    -0.3900     1.3940 oh         1 CUW      -0.651000
      7 CG           1.1990     0.3730    -0.4370 c3         1 CUW      -0.111400
      8 CD           2.4240    -0.3520     0.1050 c3         1 CUW      -0.074400
      9 CE           3.7210     0.2130    -0.4530 c3         1 CUW       0.144800
     10 NZ           4.8770    -0.4620     0.1200 n8         1 CUW      -0.997200
     11 O           -3.4390     0.1240     0.5170 o          1 CUW      -0.726500
     12 H1          -1.9820     1.8520     0.7980 hn         1 CUW       0.387000
     13 H2          -0.6190     2.3380     0.0220 hn         1 CUW       0.387000
     14 H4          -1.2060     0.5350    -1.6700 h1         1 CUW       0.047700
     15 H6          -0.1600    -1.2670    -0.4090 h1         1 CUW       0.090700
     16 H7          -0.3010     0.4930     1.7740 ho         1 CUW       0.419000
     17 H8           1.2300     0.3730    -1.5310 hc         1 CUW       0.029200
     18 H9           1.2520     1.4280    -0.1370 hc         1 CUW       0.029200
     19 H10          2.4490    -0.2890     1.1960 hc         1 CUW       0.049200
     20 H11          2.3570    -1.4170    -0.1430 hc         1 CUW       0.049200
     21 H12          3.6860     0.1650    -1.5510 h1         1 CUW       0.020200
     22 H13          3.7860     1.2750    -0.1980 h1         1 CUW       0.020200
     23 H14          4.8840    -1.4270    -0.1850 hn         1 CUW       0.382500
     24 H15          5.7250    -0.0540    -0.2530 hn         1 CUW       0.382500
@<TRIPOS>BOND
     1     1     2 1   
     2     1    12 1   
     3     1    13 1   
     4     2     3 1   
     5     2     5 1   
     6     2    14 1   
     7     3     4 1   
     8     3    11 1   
     9     5     6 1   
    10     5     7 1   
    11     5    15 1   
    12     6    16 1   
    13     7     8 1   
    14     7    17 1   
    15     7    18 1   
    16     8     9 1   
    17     8    19 1   
    18     8    20 1   
    19     9    10 1   
    20     9    21 1   
    21     9    22 1   
    22    10    23 1   
    23    10    24 1   
@<TRIPOS>SUBSTRUCTURE
     1 CUW         1 TEMP              0 ****  ****    0 ROOT
