@<TRIPOS>MOLECULE
CUX
   48    51     1     0     0
SMALL
No Charge or Current Charge


@<TRIPOS>ATOM
      1 C4           1.8510    -0.8230    -0.4400 ca         1 CUX       0.171500
      2 C5           2.2350     0.4770    -0.2180 ca         1 CUX      -0.253800
      3 C6           3.5240     0.7590     0.2500 ca         1 CUX       0.423900
      4 N1           4.3920    -0.2420     0.4830 nb         1 CUX      -0.301000
      5 N3           2.7120    -1.8380    -0.2170 nb         1 CUX      -0.221000
      6 CBB          6.4090     2.2930    -0.2200 c          1 CUX       0.588900
      7 CBA          5.3210     2.5270     0.8670 c3         1 CUX       0.109800
      8 NAA          3.9440     2.0630     0.4820 nu         1 CUX      -0.927100
      9 C2           3.9410    -1.4940     0.2360 ca         1 CUX       0.184900
     10 CAI          1.1410     1.3360    -0.5590 cc         1 CUX      -0.203200
     11 CAH          0.1180     0.5110    -0.9910 cd         1 CUX      -0.172100
     12 NAG          0.5340    -0.8440    -0.8990 na         1 CUX      -0.187400
     13 CAK         -0.2590    -2.0260    -1.2830 c5         1 CUX       0.310300
     14 OAL         -1.6690    -1.6840    -1.3420 os         1 CUX      -0.441000
     15 CAP         -0.1590    -3.2830    -0.3270 c5         1 CUX       0.084300
     16 OAQ          0.5630    -4.4000    -0.8910 oh         1 CUX      -0.694000
     17 CAN         -1.6520    -3.6680    -0.0910 c5         1 CUX       0.111300
     18 OAO         -2.0670    -4.5840    -1.1110 oh         1 CUX      -0.707000
     19 CAM         -2.3390    -2.2720    -0.2000 c5         1 CUX       0.134300
     20 CAR         -2.1980    -1.3690     1.0760 c3         1 CUX       0.206600
     21 OAS         -2.9110    -1.9630     2.1700 oh         1 CUX      -0.707000
     22 CAT         -2.6900     0.0700     0.9080 ca         1 CUX      -0.103300
     23 CAU         -1.9250     1.1320     1.4360 ca         1 CUX      -0.082000
     24 CAV         -2.3540     2.4630     1.2870 ca         1 CUX      -0.100000
     25 CAW         -3.5540     2.7430     0.6170 ca         1 CUX       0.127000
     26 ClA         -4.0890     4.4080     0.4300 cl         1 CUX      -0.201000
     27 CAX         -4.3290     1.6940     0.0980 ca         1 CUX      -0.100000
     28 CAY         -3.9020     0.3630     0.2440 ca         1 CUX      -0.082000
     29 H1           6.3290     2.9450    -1.1170 h4         1 CUX      -0.003800
     30 H4           5.6530     2.0240     1.7850 h1         1 CUX       0.069700
     31 H5           4.6380    -2.3090     0.4200 h5         1 CUX       0.050100
     32 H6           1.0990     2.4230    -0.5160 ha         1 CUX       0.201000
     33 H7          -0.8730     0.7820    -1.3470 h4         1 CUX       0.211000
     34 H8           0.0860    -2.2920    -2.2900 h2         1 CUX       0.125700
     35 H9           0.2930    -2.9910     0.6320 h1         1 CUX       0.051700
     36 H10          1.5270    -4.2160    -0.7810 ho         1 CUX       0.516000
     37 H11         -1.7970    -4.1120     0.9040 h1         1 CUX       0.070700
     38 H12         -1.2010    -4.9560    -1.4190 ho         1 CUX       0.524000
     39 H13         -3.4060    -2.3830    -0.4300 h1         1 CUX       0.089700
     40 H14         -1.1310    -1.3190     1.3300 h1         1 CUX       0.073700
     41 H15         -2.9570    -1.2820     2.8790 ho         1 CUX       0.508000
     42 H16         -0.9900     0.9290     1.9530 ha         1 CUX       0.111000
     43 H17         -1.7550     3.2760     1.6900 ha         1 CUX       0.130000
     44 H18         -5.2620     1.9130    -0.4160 ha         1 CUX       0.130000
     45 H19         -4.5190    -0.4370    -0.1580 ha         1 CUX       0.111000
     46 H20          5.3080     3.6060     1.0680 h1         1 CUX       0.069700
     47 H21          3.2330     2.7750     0.3020 hn         1 CUX       0.504000
     48 O5           7.3070     1.4570    -0.1270 o          1 CUX      -0.512100
@<TRIPOS>BOND
     1     1     2 ar  
     2     1     5 ar  
     3     1    12 1   
     4     2     3 ar  
     5     2    10 1   
     6     3     4 ar  
     7     3     8 1   
     8     4     9 ar  
     9     5     9 ar  
    10     6     7 1   
    11     6    29 1   
    12     6    48 2   
    13     7     8 1   
    14     7    30 1   
    15     7    46 1   
    16     8    47 1   
    17     9    31 1   
    18    10    11 2   
    19    10    32 1   
    20    11    12 1   
    21    11    33 1   
    22    12    13 1   
    23    13    14 1   
    24    13    15 1   
    25    13    34 1   
    26    14    19 1   
    27    15    16 1   
    28    15    17 1   
    29    15    35 1   
    30    16    36 1   
    31    17    18 1   
    32    17    19 1   
    33    17    37 1   
    34    18    38 1   
    35    19    20 1   
    36    19    39 1   
    37    20    21 1   
    38    20    22 1   
    39    20    40 1   
    40    21    41 1   
    41    22    23 ar  
    42    22    28 ar  
    43    23    24 ar  
    44    23    42 1   
    45    24    25 ar  
    46    24    43 1   
    47    25    26 1   
    48    25    27 ar  
    49    27    28 ar  
    50    27    44 1   
    51    28    45 1   
@<TRIPOS>SUBSTRUCTURE
     1 CUX         1 TEMP              0 ****  ****    0 ROOT
