@<TRIPOS>MOLECULE
CUX
   48    51     1     0     0
SMALL
abcg2


@<TRIPOS>ATOM
      1 C4           2.2370    -0.6450    -0.2600 ca         1 CUX       0.171500
      2 C5           2.8860     0.2990     0.5390 ca         1 CUX      -0.253800
      3 C6           4.0990     0.7870     0.0190 ca         1 CUX       0.423900
      4 N1           4.5350     0.3430    -1.1600 nb         1 CUX      -0.301000
      5 N3           2.6630    -1.0970    -1.4410 nb         1 CUX      -0.221000
      6 CBB          6.0380     2.6830    -1.2430 c          1 CUX       0.588900
      7 CBA          6.1370     2.0910     0.1430 c3         1 CUX       0.109800
      8 NAA          4.8500     1.7050     0.6510 nu         1 CUX      -0.927100
      9 C2           3.8040    -0.5570    -1.8160 ca         1 CUX       0.184900
     10 CAI          2.0800     0.4980     1.7000 cc         1 CUX      -0.203200
     11 CAH          1.0020    -0.3190     1.5600 cd         1 CUX      -0.172100
     12 NAG          1.0940    -1.0230     0.3770 na         1 CUX      -0.187400
     13 CAK          0.1220    -1.9350    -0.1510 c5         1 CUX       0.310300
     14 OAL         -1.0550    -1.2370    -0.4770 os         1 CUX      -0.441000
     15 CAP         -0.3150    -3.0290     0.8190 c5         1 CUX       0.084300
     16 OAQ          0.6160    -4.0700     0.8120 oh         1 CUX      -0.694000
     17 CAN         -1.6880    -3.3910     0.2510 c5         1 CUX       0.111300
     18 OAO         -1.5580    -4.1920    -0.8970 oh         1 CUX      -0.707000
     19 CAM         -2.2060    -2.0210    -0.1790 c5         1 CUX       0.134300
     20 CAR         -3.0410    -1.3080     0.8960 c3         1 CUX       0.206600
     21 OAS         -4.2050    -2.0420     1.1860 oh         1 CUX      -0.707000
     22 CAT         -3.3300     0.1160     0.4810 ca         1 CUX      -0.103300
     23 CAU         -2.5790     1.1680     0.9920 ca         1 CUX      -0.082000
     24 CAV         -2.8160     2.4780     0.6020 ca         1 CUX      -0.100000
     25 CAW         -3.8220     2.7350    -0.3150 ca         1 CUX       0.127000
     26 CLA         -4.1350     4.3670    -0.8060 cl         1 CUX      -0.201000
     27 CAX         -4.5880     1.7050    -0.8400 ca         1 CUX      -0.100000
     28 CAY         -4.3350     0.4030    -0.4380 ca         1 CUX      -0.082000
     29 H1           5.0640     3.1520    -1.4720 h4         1 CUX      -0.003800
     30 H4           6.8590     1.2700     0.1400 h1         1 CUX       0.069700
     31 H5           4.2020    -0.8800    -2.7710 h5         1 CUX       0.050100
     32 H6           2.2640     1.1560     2.5340 ha         1 CUX       0.201000
     33 H7           0.1650    -0.4530     2.2250 h4         1 CUX       0.211000
     34 H8           0.5730    -2.3840    -1.0410 h2         1 CUX       0.125700
     35 H9          -0.4450    -2.6150     1.8270 h1         1 CUX       0.051700
     36 H10          0.5210    -4.5790     1.6240 ho         1 CUX       0.516000
     37 H11         -2.3350    -3.8610     1.0000 h1         1 CUX       0.070700
     38 H12         -0.9380    -4.9030    -0.6940 ho         1 CUX       0.524000
     39 H13         -2.8170    -2.1150    -1.0860 h1         1 CUX       0.089700
     40 H14         -2.4690    -1.2820     1.8300 h1         1 CUX       0.073700
     41 H15         -4.6930    -2.2130     0.3730 ho         1 CUX       0.508000
     42 H16         -1.7980     0.9760     1.7150 ha         1 CUX       0.111000
     43 H17         -2.2230     3.2840     1.0110 ha         1 CUX       0.130000
     44 H18         -5.3750     1.9110    -1.5530 ha         1 CUX       0.130000
     45 H19         -4.9460    -0.3850    -0.8630 ha         1 CUX       0.111000
     46 H20          6.5310     2.8700     0.8010 h1         1 CUX       0.069700
     47 H21          4.5850     2.0070     1.5720 hn         1 CUX       0.504000
     48 O5           6.9570     2.7160    -2.0200 o          1 CUX      -0.512100
@<TRIPOS>BOND
     1     1     2 ar  
     2     1     5 ar  
     3     1    12 1   
     4     2     3 ar  
     5     2    10 1   
     6     3     4 ar  
     7     3     8 1   
     8     4     9 ar  
     9     5     9 ar  
    10     6     7 1   
    11     6    29 1   
    12     6    48 2   
    13     7     8 1   
    14     7    30 1   
    15     7    46 1   
    16     8    47 1   
    17     9    31 1   
    18    10    11 2   
    19    10    32 1   
    20    11    12 1   
    21    11    33 1   
    22    12    13 1   
    23    13    14 1   
    24    13    15 1   
    25    13    34 1   
    26    14    19 1   
    27    15    16 1   
    28    15    17 1   
    29    15    35 1   
    30    16    36 1   
    31    17    18 1   
    32    17    19 1   
    33    17    37 1   
    34    18    38 1   
    35    19    20 1   
    36    19    39 1   
    37    20    21 1   
    38    20    22 1   
    39    20    40 1   
    40    21    41 1   
    41    22    23 ar  
    42    22    28 ar  
    43    23    24 ar  
    44    23    42 1   
    45    24    25 ar  
    46    24    43 1   
    47    25    26 1   
    48    25    27 ar  
    49    27    28 ar  
    50    27    44 1   
    51    28    45 1   
@<TRIPOS>SUBSTRUCTURE
     1 CUX         1 TEMP              0 ****  ****    0 ROOT
