@<TRIPOS>MOLECULE
CUY
  128   127     1     0     0
SMALL
No Charge or Current Charge


@<TRIPOS>ATOM
      1 CBD         15.7270     1.0840    -0.5890 c3         1 CUY      -0.074400
      2 CBE         14.6580    -0.0100    -0.3710 c3         1 CUY      -0.074400
      3 CBF         13.2420     0.5650    -0.1410 c3         1 CUY      -0.074400
      4 CBG         12.1690    -0.5270     0.0620 c3         1 CUY      -0.074400
      5 CBH         10.7540     0.0500     0.2900 c3         1 CUY      -0.073400
      6 CBI          9.6780    -1.0420     0.4780 c3         1 CUY      -0.074400
      7 CBJ          8.2640    -0.4630     0.7060 c3         1 CUY      -0.073400
      8 CBK          7.1840    -1.5530     0.8790 c3         1 CUY      -0.074400
      9 CBL          5.7720    -0.9710     1.1120 c3         1 CUY      -0.073400
     10 CBM          4.6870    -2.0580     1.2770 c3         1 CUY      -0.075400
     11 CAW          3.2780    -1.4740     1.5190 c3         1 CUY      -0.073400
     12 CAV          2.1920    -2.5600     1.6840 c3         1 CUY      -0.075400
     13 CAU          0.7860    -1.9750     1.9450 c3         1 CUY      -0.073400
     14 CAT         -0.2970    -3.0620     2.1200 c3         1 CUY      -0.076400
     15 CAS         -1.6990    -2.4790     2.4090 c3         1 CUY      -0.082400
     16 CAR         -2.7730    -3.5670     2.6030 c3         1 CUY       0.167600
     17 OAQ         -4.0110    -2.9070     2.9140 os         1 CUY      -0.455100
     18 CAP         -5.1080    -3.6890     3.1720 c          1 CUY       0.593100
     19 OBO         -5.1030    -4.9120     3.1630 o          1 CUY      -0.490000
     20 CAO         -6.3400    -2.8490     3.5190 c3         1 CUY      -0.137400
     21 CAN         -7.2910    -2.7060     2.3070 c3         1 CUY      -0.068400
     22 CAM         -8.5640    -1.8950     2.6340 c3         1 CUY      -0.075400
     23 CAL         -9.5370    -1.7820     1.4390 c3         1 CUY      -0.074400
     24 CAK        -10.8190    -0.9890     1.7770 c3         1 CUY      -0.074400
     25 CAJ        -11.8080    -0.9060     0.5940 c3         1 CUY      -0.074400
     26 CAI        -13.0980    -0.1280     0.9350 c3         1 CUY      -0.074400
     27 CAH        -14.0990    -0.0730    -0.2400 c3         1 CUY      -0.074400
     28 CAG        -15.3960     0.6930     0.1020 c3         1 CUY      -0.074400
     29 CAF        -16.4050     0.7240    -1.0680 c3         1 CUY      -0.074400
     30 CAE        -17.7080     1.4810    -0.7260 c3         1 CUY      -0.074400
     31 CAD        -18.7210     1.4960    -1.8930 c3         1 CUY      -0.074400
     32 CAC        -20.0280     2.2460    -1.5530 c3         1 CUY      -0.074400
     33 CAB        -21.0430     2.2480    -2.7180 c3         1 CUY      -0.074400
     34 CAA        -22.3520     2.9950    -2.3800 c3         1 CUY      -0.075400
     35 C40        -23.3680     2.9900    -3.5430 c3         1 CUY      -0.075400
     36 C41        -24.6750     3.7350    -3.2080 c3         1 CUY      -0.089100
     37 H1          15.4410     1.6980    -1.4530 hc         1 CUY       0.037200
     38 H2          15.7450     1.7490     0.2840 hc         1 CUY       0.037200
     39 H4          14.6390    -0.6740    -1.2440 hc         1 CUY       0.036700
     40 H5          14.9410    -0.6240     0.4930 hc         1 CUY       0.036700
     41 H6          13.2590     1.2220     0.7380 hc         1 CUY       0.037200
     42 H7          12.9630     1.1870    -1.0010 hc         1 CUY       0.037200
     43 H8          12.1530    -1.1830    -0.8180 hc         1 CUY       0.036700
     44 H9          12.4470    -1.1500     0.9210 hc         1 CUY       0.036700
     45 H10         10.7680     0.6980     1.1750 hc         1 CUY       0.037700
     46 H11         10.4810     0.6810    -0.5650 hc         1 CUY       0.037700
     47 H12          9.6640    -1.6890    -0.4090 hc         1 CUY       0.036700
     48 H13          9.9500    -1.6750     1.3320 hc         1 CUY       0.036700
     49 H14          8.2770     0.1770     1.5970 hc         1 CUY       0.037700
     50 H15          7.9960     0.1770    -0.1440 hc         1 CUY       0.037700
     51 H16          7.1680    -2.1910    -0.0140 hc         1 CUY       0.036700
     52 H17          7.4520    -2.1960     1.7280 hc         1 CUY       0.036700
     53 H18          5.7870    -0.3380     2.0080 hc         1 CUY       0.037700
     54 H19          5.5060    -0.3240     0.2660 hc         1 CUY       0.037700
     55 H20          4.6670    -2.6870     0.3780 hc         1 CUY       0.037200
     56 H21          4.9560    -2.7100     2.1190 hc         1 CUY       0.037200
     57 H22          3.2990    -0.8460     2.4190 hc         1 CUY       0.037700
     58 H23          3.0090    -0.8200     0.6790 hc         1 CUY       0.037700
     59 H24          2.1620    -3.1800     0.7790 hc         1 CUY       0.037700
     60 H25          2.4670    -3.2190     2.5160 hc         1 CUY       0.037700
     61 H26          0.8190    -1.3510     2.8470 hc         1 CUY       0.039700
     62 H27          0.5080    -1.3180     1.1110 hc         1 CUY       0.039700
     63 H28         -0.3420    -3.6760     1.2110 hc         1 CUY       0.040700
     64 H29         -0.0090    -3.7280     2.9430 hc         1 CUY       0.040700
     65 H30         -1.6530    -1.8600     3.3140 hc         1 CUY       0.052700
     66 H31         -1.9990    -1.8230     1.5820 hc         1 CUY       0.052700
     67 H32         -2.8660    -4.1620     1.6840 h1         1 CUY       0.048200
     68 H33         -2.4710    -4.2350     3.4210 h1         1 CUY       0.048200
     69 H34         -6.8800    -3.3360     4.3390 hc         1 CUY       0.070700
     70 H35         -6.0210    -1.8430     3.8150 hc         1 CUY       0.070700
     71 H36         -6.7540    -2.2220     1.4800 hc         1 CUY       0.054200
     72 H37         -7.5810    -3.7050     1.9570 hc         1 CUY       0.054200
     73 H38         -9.0850    -2.3690     3.4760 hc         1 CUY       0.037200
     74 H39         -8.2760    -0.8880     2.9620 hc         1 CUY       0.037200
     75 H40         -9.0230    -1.2970     0.6000 hc         1 CUY       0.039700
     76 H41         -9.8150    -2.7900     1.1070 hc         1 CUY       0.039700
     77 H42        -11.3200    -1.4630     2.6310 hc         1 CUY       0.036700
     78 H43        -10.5430     0.0260     2.0900 hc         1 CUY       0.036700
     79 H44        -11.3120    -0.4250    -0.2590 hc         1 CUY       0.037700
     80 H45        -12.0750    -1.9220     0.2770 hc         1 CUY       0.037700
     81 H46        -13.5840    -0.5990     1.7990 hc         1 CUY       0.037200
     82 H47        -12.8350     0.8950     1.2340 hc         1 CUY       0.037200
     83 H48        -13.6160     0.4030    -1.1030 hc         1 CUY       0.037700
     84 H49        -15.8710     0.2250     0.9730 hc         1 CUY       0.036700
     85 H50        -15.9320     1.1950    -1.9390 hc         1 CUY       0.037700
     86 H51        -16.6530    -0.3050    -1.3550 hc         1 CUY       0.037700
     87 H52        -18.1750     1.0160     0.1510 hc         1 CUY       0.036700
     88 H53        -17.4620     2.5140    -0.4490 hc         1 CUY       0.036700
     89 H54        -18.2540     1.9630    -2.7690 hc         1 CUY       0.037200
     90 H55        -18.9620     0.4620    -2.1710 hc         1 CUY       0.037200
     91 H56        -20.4910     1.7830    -0.6730 hc         1 CUY       0.036700
     92 H57        -19.7880     3.2820    -1.2820 hc         1 CUY       0.036700
     93 H58        -20.5800     2.7120    -3.5980 hc         1 CUY       0.036700
     94 H59        -21.2800     1.2120    -2.9900 hc         1 CUY       0.036700
     95 H60        -22.8130     2.5340    -1.4980 hc         1 CUY       0.036700
     96 H61        -22.1160     4.0330    -2.1130 hc         1 CUY       0.036700
     97 H62        -22.9120     3.4520    -4.4280 hc         1 CUY       0.036700
     98 H63        -23.6090     1.9530    -3.8110 hc         1 CUY       0.036700
     99 H64        -25.1740     3.2750    -2.3460 hc         1 CUY       0.031367
    100 H65        -24.4730     4.7870    -2.9710 hc         1 CUY       0.031367
    101 H66        -25.3640     3.7020    -4.0610 hc         1 CUY       0.031367
    102 C1          17.1430     0.5120    -0.8210 c3         1 CUY      -0.074400
    103 C2          18.2080     1.6070    -1.0520 c3         1 CUY      -0.074400
    104 C3          19.6240     1.0350    -1.2850 c3         1 CUY      -0.074400
    105 C4          20.6880     2.1290    -1.5250 c3         1 CUY      -0.074400
    106 C5          22.1040     1.5560    -1.7580 c3         1 CUY      -0.074400
    107 C6          23.1670     2.6490    -2.0040 c3         1 CUY      -0.075400
    108 C7          24.5830     2.0760    -2.2360 c3         1 CUY      -0.075400
    109 C8          25.6430     3.1680    -2.4840 c3         1 CUY      -0.088100
    110 H3         -14.3550    -1.0970    -0.5410 hc         1 CUY       0.037700
    111 H67        -15.1430     1.7220     0.3880 hc         1 CUY       0.036700
    112 H68         17.4320    -0.0950     0.0460 hc         1 CUY       0.036700
    113 H69         17.1220    -0.1590    -1.6890 hc         1 CUY       0.036700
    114 H70         17.9180     2.2130    -1.9190 hc         1 CUY       0.036700
    115 H71         18.2290     2.2780    -0.1840 hc         1 CUY       0.036700
    116 H72         19.9170     0.4330    -0.4150 hc         1 CUY       0.036700
    117 H73         19.6020     0.3590    -2.1490 hc         1 CUY       0.036700
    118 H74         20.3950     2.7300    -2.3960 hc         1 CUY       0.036700
    119 H75         20.7100     2.8060    -0.6620 hc         1 CUY       0.036700
    120 H76         22.3970     0.9580    -0.8860 hc         1 CUY       0.036700
    121 H77         22.0800     0.8760    -2.6190 hc         1 CUY       0.036700
    122 H78         22.8730     3.2460    -2.8770 hc         1 CUY       0.036700
    123 H79         23.1900     3.3290    -1.1430 hc         1 CUY       0.036700
    124 H80         24.8820     1.4820    -1.3630 hc         1 CUY       0.036700
    125 H81         24.5640     1.3960    -3.0960 hc         1 CUY       0.036700
    126 H82         25.3910     3.7580    -3.3730 hc         1 CUY       0.031367
    127 H83         25.7100     3.8460    -1.6250 hc         1 CUY       0.031367
    128 H84         26.6290     2.7140    -2.6420 hc         1 CUY       0.031367
@<TRIPOS>BOND
     1     1     2 1   
     2     1    37 1   
     3     1    38 1   
     4     1   102 1   
     5     2     3 1   
     6     2    39 1   
     7     2    40 1   
     8     3     4 1   
     9     3    41 1   
    10     3    42 1   
    11     4     5 1   
    12     4    43 1   
    13     4    44 1   
    14     5     6 1   
    15     5    45 1   
    16     5    46 1   
    17     6     7 1   
    18     6    47 1   
    19     6    48 1   
    20     7     8 1   
    21     7    49 1   
    22     7    50 1   
    23     8     9 1   
    24     8    51 1   
    25     8    52 1   
    26     9    10 1   
    27     9    53 1   
    28     9    54 1   
    29    10    11 1   
    30    10    55 1   
    31    10    56 1   
    32    11    12 1   
    33    11    57 1   
    34    11    58 1   
    35    12    13 1   
    36    12    59 1   
    37    12    60 1   
    38    13    14 1   
    39    13    61 1   
    40    13    62 1   
    41    14    15 1   
    42    14    63 1   
    43    14    64 1   
    44    15    16 1   
    45    15    65 1   
    46    15    66 1   
    47    16    17 1   
    48    16    67 1   
    49    16    68 1   
    50    17    18 1   
    51    18    19 2   
    52    18    20 1   
    53    20    21 1   
    54    20    69 1   
    55    20    70 1   
    56    21    22 1   
    57    21    71 1   
    58    21    72 1   
    59    22    23 1   
    60    22    73 1   
    61    22    74 1   
    62    23    24 1   
    63    23    75 1   
    64    23    76 1   
    65    24    25 1   
    66    24    77 1   
    67    24    78 1   
    68    25    26 1   
    69    25    79 1   
    70    25    80 1   
    71    26    27 1   
    72    26    81 1   
    73    26    82 1   
    74    27    28 1   
    75    27    83 1   
    76    27   110 1   
    77    28    29 1   
    78    28    84 1   
    79    28   111 1   
    80    29    30 1   
    81    29    85 1   
    82    29    86 1   
    83    30    31 1   
    84    30    87 1   
    85    30    88 1   
    86    31    32 1   
    87    31    89 1   
    88    31    90 1   
    89    32    33 1   
    90    32    91 1   
    91    32    92 1   
    92    33    34 1   
    93    33    93 1   
    94    33    94 1   
    95    34    35 1   
    96    34    95 1   
    97    34    96 1   
    98    35    36 1   
    99    35    97 1   
   100    35    98 1   
   101    36    99 1   
   102    36   100 1   
   103    36   101 1   
   104   102   103 1   
   105   102   112 1   
   106   102   113 1   
   107   103   104 1   
   108   103   114 1   
   109   103   115 1   
   110   104   105 1   
   111   104   116 1   
   112   104   117 1   
   113   105   106 1   
   114   105   118 1   
   115   105   119 1   
   116   106   107 1   
   117   106   120 1   
   118   106   121 1   
   119   107   108 1   
   120   107   122 1   
   121   107   123 1   
   122   108   109 1   
   123   108   124 1   
   124   108   125 1   
   125   109   126 1   
   126   109   127 1   
   127   109   128 1   
@<TRIPOS>SUBSTRUCTURE
     1 CUY         1 TEMP              0 ****  ****    0 ROOT
