@<TRIPOS>MOLECULE
CUY
  128   127     1     0     0
SMALL
bcc


@<TRIPOS>ATOM
      1 CBD         16.4870     0.5960    -0.1260 c3         1 CUY      -0.074400
      2 CBE         15.2230    -0.2390     0.0290 c3         1 CUY      -0.074400
      3 CBF         13.9400     0.5740    -0.0910 c3         1 CUY      -0.074400
      4 CBG         12.6800    -0.2720     0.0460 c3         1 CUY      -0.074400
      5 CBH         11.3920     0.5360    -0.0480 c3         1 CUY      -0.073400
      6 CBI         10.1400    -0.3240     0.0600 c3         1 CUY      -0.074400
      7 CBJ          8.8430     0.4740     0.0040 c3         1 CUY      -0.073400
      8 CBK          7.6010    -0.4050     0.0790 c3         1 CUY      -0.074400
      9 CBL          6.2940     0.3780     0.0570 c3         1 CUY      -0.073400
     10 CBM          5.0660    -0.5230     0.1020 c3         1 CUY      -0.075400
     11 CAW          3.7460     0.2380     0.1020 c3         1 CUY      -0.073400
     12 CAV          2.5330    -0.6840     0.1290 c3         1 CUY      -0.075400
     13 CAU          1.2020     0.0550     0.1470 c3         1 CUY      -0.073400
     14 CAT          0.0080    -0.8920     0.1670 c3         1 CUY      -0.076400
     15 CAS         -1.3340    -0.1680     0.1870 c3         1 CUY      -0.082400
     16 CAR         -2.4770    -1.1600     0.2040 c3         1 CUY       0.144400
     17 OAQ         -3.7110    -0.4300     0.2150 os         1 CUY      -0.431900
     18 CAP         -4.8440    -1.1230     0.2340 c          1 CUY       0.642100
     19 OBO         -4.8810    -2.3290     0.2470 o          1 CUY      -0.539000
     20 CAO         -6.0470    -0.2180     0.2380 c3         1 CUY      -0.137400
     21 CAN         -7.3700    -0.9650     0.2040 c3         1 CUY      -0.068400
     22 CAM         -8.5640    -0.0190     0.2080 c3         1 CUY      -0.075400
     23 CAL         -9.8960    -0.7570     0.1630 c3         1 CUY      -0.074400
     24 CAK        -11.1040     0.1710     0.1590 c3         1 CUY      -0.074400
     25 CAJ        -12.4300    -0.5780     0.1010 c3         1 CUY      -0.074400
     26 CAI        -13.6460     0.3410     0.0940 c3         1 CUY      -0.074400
     27 CAH        -14.9660    -0.4160     0.0260 c3         1 CUY      -0.074400
     28 CAG        -16.1870     0.4970     0.0140 c3         1 CUY      -0.074400
     29 CAF        -17.5040    -0.2650    -0.0560 c3         1 CUY      -0.074400
     30 CAE        -18.7270     0.6430    -0.0700 c3         1 CUY      -0.074400
     31 CAD        -20.0430    -0.1210    -0.1400 c3         1 CUY      -0.074400
     32 CAC        -21.2670     0.7860    -0.1560 c3         1 CUY      -0.074400
     33 CAB        -22.5840     0.0210    -0.2220 c3         1 CUY      -0.074400
     34 CAA        -23.8070     0.9300    -0.2390 c3         1 CUY      -0.075400
     35 C40        -25.1250     0.1680    -0.2990 c3         1 CUY      -0.075400
     36 C41        -26.3370     1.0890    -0.3150 c3         1 CUY      -0.089100
     37 H1          16.4760     1.0930    -1.1030 hc         1 CUY       0.037200
     38 H2          16.4870     1.3980     0.6210 hc         1 CUY       0.037200
     39 H4          15.2200    -1.0350    -0.7240 hc         1 CUY       0.036700
     40 H5          15.2390    -0.7460     1.0010 hc         1 CUY       0.036700
     41 H6          13.9360     1.3600     0.6720 hc         1 CUY       0.037200
     42 H7          13.9270     1.0910    -1.0570 hc         1 CUY       0.037200
     43 H8          12.6790    -1.0470    -0.7290 hc         1 CUY       0.036700
     44 H9          12.7030    -0.8040     1.0040 hc         1 CUY       0.036700
     45 H10         11.3820     1.2960     0.7420 hc         1 CUY       0.037700
     46 H11         11.3750     1.0850    -0.9960 hc         1 CUY       0.037700
     47 H12         10.1420    -1.0670    -0.7450 hc         1 CUY       0.036700
     48 H13         10.1710    -0.8940     0.9960 hc         1 CUY       0.036700
     49 H14          8.8270     1.1990     0.8260 hc         1 CUY       0.037700
     50 H15          8.8170     1.0640    -0.9190 hc         1 CUY       0.037700
     51 H16          7.6120    -1.1150    -0.7560 hc         1 CUY       0.036700
     52 H17          7.6420    -1.0120     0.9900 hc         1 CUY       0.036700
     53 H18          6.2700     1.0700     0.9050 hc         1 CUY       0.037700
     54 H19          6.2560     1.0000    -0.8440 hc         1 CUY       0.037700
     55 H20          5.0890    -1.2070    -0.7540 hc         1 CUY       0.037200
     56 H21          5.1150    -1.1570     0.9950 hc         1 CUY       0.037200
     57 H22          3.7120     0.9100     0.9660 hc         1 CUY       0.037700
     58 H23          3.6950     0.8810    -0.7840 hc         1 CUY       0.037700
     59 H24          2.5670    -1.3490    -0.7420 hc         1 CUY       0.037700
     60 H25          2.5960    -1.3360     1.0080 hc         1 CUY       0.037700
     61 H26          1.1590     0.7120     1.0230 hc         1 CUY       0.039700
     62 H27          1.1340     0.7090    -0.7290 hc         1 CUY       0.039700
     63 H28          0.0560    -1.5490    -0.7090 hc         1 CUY       0.040700
     64 H29          0.0830    -1.5470     1.0420 hc         1 CUY       0.040700
     65 H30         -1.3910     0.4780     1.0680 hc         1 CUY       0.052700
     66 H31         -1.4160     0.4790    -0.6910 hc         1 CUY       0.052700
     67 H32         -2.4370    -1.8050    -0.6780 h1         1 CUY       0.048200
     68 H33         -2.4160    -1.8000     1.0880 h1         1 CUY       0.048200
     69 H34         -5.9890     0.4210     1.1250 hc         1 CUY       0.070700
     70 H35         -5.9670     0.4620    -0.6160 hc         1 CUY       0.070700
     71 H36         -7.4150    -1.5980    -0.6870 hc         1 CUY       0.054200
     72 H37         -7.4400    -1.6380     1.0630 hc         1 CUY       0.054200
     73 H38         -8.5280     0.6150     1.1010 hc         1 CUY       0.037200
     74 H39         -8.4950     0.6610    -0.6490 hc         1 CUY       0.037200
     75 H40         -9.9270    -1.3930    -0.7300 hc         1 CUY       0.039700
     76 H41         -9.9640    -1.4360     1.0200 hc         1 CUY       0.039700
     77 H42        -11.0810     0.8020     1.0550 hc         1 CUY       0.036700
     78 H43        -11.0340     0.8540    -0.6940 hc         1 CUY       0.036700
     79 H44        -12.4490    -1.2110    -0.7930 hc         1 CUY       0.037700
     80 H45        -12.4980    -1.2610     0.9550 hc         1 CUY       0.037700
     81 H46        -13.6320     0.9690     0.9920 hc         1 CUY       0.037200
     82 H47        -13.5750     1.0280    -0.7570 hc         1 CUY       0.037200
     83 H48        -14.9770    -1.0460    -0.8710 hc         1 CUY       0.037700
     84 H49        -16.1780     1.1270     0.9110 hc         1 CUY       0.036700
     85 H50        -17.5120    -0.8960    -0.9520 hc         1 CUY       0.037700
     86 H51        -17.5730    -0.9510     0.7960 hc         1 CUY       0.037700
     87 H52        -18.7210     1.2750     0.8250 hc         1 CUY       0.036700
     88 H53        -18.6600     1.3280    -0.9230 hc         1 CUY       0.036700
     89 H54        -20.0490    -0.7540    -1.0350 hc         1 CUY       0.037200
     90 H55        -20.1110    -0.8050     0.7140 hc         1 CUY       0.037200
     91 H56        -21.2610     1.4200     0.7380 hc         1 CUY       0.036700
     92 H57        -21.2010     1.4690    -1.0110 hc         1 CUY       0.036700
     93 H58        -22.5910    -0.6140    -1.1150 hc         1 CUY       0.036700
     94 H59        -22.6510    -0.6600     0.6340 hc         1 CUY       0.036700
     95 H60        -23.7980     1.5670     0.6520 hc         1 CUY       0.036700
     96 H61        -23.7420     1.6090    -1.0970 hc         1 CUY       0.036700
     97 H62        -25.1360    -0.4690    -1.1900 hc         1 CUY       0.036700
     98 H63        -25.1910    -0.5100     0.5580 hc         1 CUY       0.036700
     99 H64        -26.3640     1.7170     0.5780 hc         1 CUY       0.031367
    100 H65        -26.3150     1.7520    -1.1830 hc         1 CUY       0.031367
    101 H66        -27.2720     0.5280    -0.3520 hc         1 CUY       0.031367
    102 C1          17.7660    -0.2200     0.0100 c3         1 CUY      -0.074400
    103 C2          19.0330     0.6100    -0.1510 c3         1 CUY      -0.074400
    104 C3          20.3100    -0.2080    -0.0100 c3         1 CUY      -0.074400
    105 C4          21.5790     0.6190    -0.1720 c3         1 CUY      -0.074400
    106 C5          22.8550    -0.2010    -0.0340 c3         1 CUY      -0.074400
    107 C6          24.1240     0.6270    -0.1930 c3         1 CUY      -0.075400
    108 C7          25.4010    -0.1930    -0.0630 c3         1 CUY      -0.075400
    109 C8          26.6620     0.6430    -0.2360 c3         1 CUY      -0.088100
    110 H3         -15.0360    -1.1010     0.8780 hc         1 CUY       0.037700
    111 H67        -16.1180     1.1830    -0.8380 hc         1 CUY       0.036700
    112 H68         17.7780    -0.7130     0.9890 hc         1 CUY       0.036700
    113 H69         17.7640    -1.0260    -0.7330 hc         1 CUY       0.036700
    114 H70         19.0230     1.1010    -1.1310 hc         1 CUY       0.036700
    115 H71         19.0360     1.4170     0.5910 hc         1 CUY       0.036700
    116 H72         20.3200    -0.6990     0.9700 hc         1 CUY       0.036700
    117 H73         20.3070    -1.0160    -0.7510 hc         1 CUY       0.036700
    118 H74         21.5690     1.1120    -1.1510 hc         1 CUY       0.036700
    119 H75         21.5830     1.4250     0.5710 hc         1 CUY       0.036700
    120 H76         22.8640    -0.6950     0.9440 hc         1 CUY       0.036700
    121 H77         22.8510    -1.0060    -0.7780 hc         1 CUY       0.036700
    122 H78         24.1130     1.1250    -1.1690 hc         1 CUY       0.036700
    123 H79         24.1310     1.4280     0.5540 hc         1 CUY       0.036700
    124 H80         25.4180    -0.6850     0.9150 hc         1 CUY       0.036700
    125 H81         25.3920    -0.9980    -0.8050 hc         1 CUY       0.036700
    126 H82         26.6810     1.1280    -1.2140 hc         1 CUY       0.031367
    127 H83         26.7210     1.4290     0.5200 hc         1 CUY       0.031367
    128 H84         27.5630     0.0360    -0.1510 hc         1 CUY       0.031367
@<TRIPOS>BOND
     1     1     2 1   
     2     1    37 1   
     3     1    38 1   
     4     1   102 1   
     5     2     3 1   
     6     2    39 1   
     7     2    40 1   
     8     3     4 1   
     9     3    41 1   
    10     3    42 1   
    11     4     5 1   
    12     4    43 1   
    13     4    44 1   
    14     5     6 1   
    15     5    45 1   
    16     5    46 1   
    17     6     7 1   
    18     6    47 1   
    19     6    48 1   
    20     7     8 1   
    21     7    49 1   
    22     7    50 1   
    23     8     9 1   
    24     8    51 1   
    25     8    52 1   
    26     9    10 1   
    27     9    53 1   
    28     9    54 1   
    29    10    11 1   
    30    10    55 1   
    31    10    56 1   
    32    11    12 1   
    33    11    57 1   
    34    11    58 1   
    35    12    13 1   
    36    12    59 1   
    37    12    60 1   
    38    13    14 1   
    39    13    61 1   
    40    13    62 1   
    41    14    15 1   
    42    14    63 1   
    43    14    64 1   
    44    15    16 1   
    45    15    65 1   
    46    15    66 1   
    47    16    17 1   
    48    16    67 1   
    49    16    68 1   
    50    17    18 1   
    51    18    19 2   
    52    18    20 1   
    53    20    21 1   
    54    20    69 1   
    55    20    70 1   
    56    21    22 1   
    57    21    71 1   
    58    21    72 1   
    59    22    23 1   
    60    22    73 1   
    61    22    74 1   
    62    23    24 1   
    63    23    75 1   
    64    23    76 1   
    65    24    25 1   
    66    24    77 1   
    67    24    78 1   
    68    25    26 1   
    69    25    79 1   
    70    25    80 1   
    71    26    27 1   
    72    26    81 1   
    73    26    82 1   
    74    27    28 1   
    75    27    83 1   
    76    27   110 1   
    77    28    29 1   
    78    28    84 1   
    79    28   111 1   
    80    29    30 1   
    81    29    85 1   
    82    29    86 1   
    83    30    31 1   
    84    30    87 1   
    85    30    88 1   
    86    31    32 1   
    87    31    89 1   
    88    31    90 1   
    89    32    33 1   
    90    32    91 1   
    91    32    92 1   
    92    33    34 1   
    93    33    93 1   
    94    33    94 1   
    95    34    35 1   
    96    34    95 1   
    97    34    96 1   
    98    35    36 1   
    99    35    97 1   
   100    35    98 1   
   101    36    99 1   
   102    36   100 1   
   103    36   101 1   
   104   102   103 1   
   105   102   112 1   
   106   102   113 1   
   107   103   104 1   
   108   103   114 1   
   109   103   115 1   
   110   104   105 1   
   111   104   116 1   
   112   104   117 1   
   113   105   106 1   
   114   105   118 1   
   115   105   119 1   
   116   106   107 1   
   117   106   120 1   
   118   106   121 1   
   119   107   108 1   
   120   107   122 1   
   121   107   123 1   
   122   108   109 1   
   123   108   124 1   
   124   108   125 1   
   125   109   126 1   
   126   109   127 1   
   127   109   128 1   
@<TRIPOS>SUBSTRUCTURE
     1 CUY         1 TEMP              0 ****  ****    0 ROOT
