@<TRIPOS>MOLECULE
CV1
   55    59     1     0     0
SMALL
bcc


@<TRIPOS>ATOM
      1 N1          -1.5900     2.3990    -0.0990 na         1 CV1      -0.268900
      2 BR1          4.5120     2.4730     0.8960 br         1 CV1       0.036700
      3 C2          -1.2540     1.2820    -0.8310 ca         1 CV1       0.604400
      4 N3          -0.0630     0.8400    -1.0130 nb         1 CV1      -0.563000
      5 C4           0.8730     1.5560    -0.3810 ca         1 CV1       0.508800
      6 C5           0.6840     2.7450     0.2740 ca         1 CV1      -0.180900
      7 C6          -0.6320     3.2220     0.4200 ca         1 CV1       0.275500
      8 N6          -0.9050     4.3450     1.0420 nv         1 CV1      -0.381200
      9 N7           1.8620     3.2080     0.7790 nc         1 CV1      -0.535100
     10 C8           2.7260     2.2940     0.4670 cd         1 CV1       0.383800
     11 N9           2.1920     1.2480    -0.2500 na         1 CV1      -0.194000
     12 PA          -0.5560    -3.6420     1.0470 p5         1 CV1       1.458800
     13 PB          -2.4900    -2.3170    -0.6840 p5         1 CV1       1.454800
     14 C1           2.6140    -0.1010    -0.6200 c5         1 CV1       0.258800
     15 O1A         -0.0430    -4.6470     0.0650 o          1 CV1      -0.830000
     16 O1B         -2.1860    -1.6010    -1.9650 o          1 CV1      -0.842500
     17 C1D         -3.0030     2.4820     0.3300 c5         1 CV1       0.241800
     18 C7           3.9990    -0.6080    -0.2480 c5         1 CV1       0.046100
     19 O2           4.9830    -0.1180    -1.1050 oh         1 CV1      -0.586800
     20 O2A         -1.4940    -4.0180     2.1480 o          1 CV1      -0.830000
     21 O2B         -3.1140    -3.6770    -0.7060 o          1 CV1      -0.842500
     22 C2D         -4.0190     2.6260    -0.8040 c5         1 CV1       0.052100
     23 O2D         -4.2150     3.9790    -1.0770 oh         1 CV1      -0.605800
     24 C3           3.7550    -2.1310    -0.3800 c5         1 CV1       0.090100
     25 O3           3.9350    -2.5670    -1.7010 oh         1 CV1      -0.565800
     26 O3A         -1.1530    -2.3280     0.2500 os         1 CV1      -0.708800
     27 C3D         -5.2310     1.9010    -0.1910 c5         1 CV1       0.084100
     28 O3D         -5.8850     2.7210     0.7370 oh         1 CV1      -0.583800
     29 C9           2.2700    -2.2720    -0.0100 c5         1 CV1       0.104100
     30 O4           1.7670    -0.9460     0.0910 os         1 CV1      -0.362600
     31 C4D         -4.5500     0.7630     0.5580 c5         1 CV1       0.129100
     32 O4D         -3.2970     1.3030     0.9960 os         1 CV1      -0.352600
     33 C10          2.0370    -2.9830     1.3070 c3         1 CV1       0.231400
     34 O5           0.7120    -2.8870     1.7780 os         1 CV1      -0.555200
     35 C5D         -4.3430    -0.4570    -0.3290 c3         1 CV1       0.193400
     36 O5D         -3.4040    -1.3170     0.2660 os         1 CV1      -0.544200
     37 H2          -2.0660     0.7330    -1.2840 h5         1 CV1       0.133100
     38 HN6         -1.8220     4.7530     1.1130 hn         1 CV1       0.317700
     39 HN6A        -0.1450     4.8860     1.4240 hn         1 CV1       0.317700
     40 H1           2.4700    -0.1790    -1.7050 h2         1 CV1       0.108700
     41 H1D         -3.0940     3.3360     1.0040 h2         1 CV1       0.068700
     42 H6           4.1990    -0.3880     0.8060 h1         1 CV1       0.060700
     43 HO2          5.8300    -0.1230    -0.6490 ho         1 CV1       0.409000
     44 H2D         -3.6910     2.0830    -1.6970 h1         1 CV1       0.080700
     45 HO2D        -4.5530     4.0730    -1.9730 ho         1 CV1       0.425000
     46 H3           4.4050    -2.6820     0.3130 h1         1 CV1       0.050700
     47 HO3          4.8020    -2.2660    -1.9980 ho         1 CV1       0.400000
     48 H3D         -5.9110     1.5310    -0.9690 h1         1 CV1       0.070700
     49 HO3D        -6.0720     3.5670     0.3150 ho         1 CV1       0.408000
     50 H4           1.7450    -2.8010    -0.8120 h1         1 CV1       0.135700
     51 H4D         -5.1130     0.4810     1.4510 h1         1 CV1       0.116700
     52 H5           2.3530    -4.0250     1.1880 h1         1 CV1       0.018700
     53 H5'A         2.6690    -2.5380     2.0810 h1         1 CV1       0.018700
     54 H5D         -5.3160    -0.9470    -0.4530 h1         1 CV1       0.020200
     55 H5DA        -4.0210    -0.1510    -1.3310 h1         1 CV1       0.020200
@<TRIPOS>BOND
     1     1     3 1   
     2     1     7 2   
     3     1    17 1   
     4     2    10 1   
     5     3     4 ar  
     6     3    37 1   
     7     4     5 ar  
     8     5     6 ar  
     9     5    11 1   
    10     6     7 ar  
    11     6     9 1   
    12     7     8 1   
    13     8    38 1   
    14     8    39 1   
    15     9    10 2   
    16    10    11 1   
    17    11    14 1   
    18    12    15 1   
    19    12    20 1   
    20    12    26 1   
    21    12    34 1   
    22    13    16 1   
    23    13    21 1   
    24    13    26 1   
    25    13    36 1   
    26    14    18 1   
    27    14    30 1   
    28    14    40 1   
    29    17    22 1   
    30    17    32 1   
    31    17    41 1   
    32    18    19 1   
    33    18    24 1   
    34    18    42 1   
    35    19    43 1   
    36    22    23 1   
    37    22    27 1   
    38    22    44 1   
    39    23    45 1   
    40    24    25 1   
    41    24    29 1   
    42    24    46 1   
    43    25    47 1   
    44    27    28 1   
    45    27    31 1   
    46    27    48 1   
    47    28    49 1   
    48    29    30 1   
    49    29    33 1   
    50    29    50 1   
    51    31    32 1   
    52    31    35 1   
    53    31    51 1   
    54    33    34 1   
    55    33    52 1   
    56    33    53 1   
    57    35    36 1   
    58    35    54 1   
    59    35    55 1   
@<TRIPOS>SUBSTRUCTURE
     1 CV1         1 TEMP              0 ****  ****    0 ROOT
