@<TRIPOS>MOLECULE
CV1
   55    59     1     0     0
SMALL
No Charge or Current Charge


@<TRIPOS>ATOM
      1 N1          -1.5350     2.1100    -0.0810 na         1 CV1      -0.298200
      2 Br1          4.7720     2.5900     0.4470 br         1 CV1       0.036700
      3 C2          -1.1430     1.2130    -1.0750 ca         1 CV1       0.604400
      4 N3           0.1170     0.8140    -1.3290 nb         1 CV1      -0.563000
      5 C4           1.0780     1.3890    -0.5910 ca         1 CV1       0.443500
      6 C5           0.8300     2.4750     0.2130 ca         1 CV1      -0.115600
      7 C6          -0.4960     2.9010     0.4090 ca         1 CV1       0.275500
      8 N6          -0.7700     4.0570     1.0920 nv         1 CV1      -0.481800
      9 N7           1.9940     3.0540     0.6950 nc         1 CV1      -0.535100
     10 C8           2.9310     2.2370     0.1860 cd         1 CV1       0.383800
     11 N9           2.4260     1.1390    -0.5430 na         1 CV1      -0.223300
     12 PA          -1.0010    -2.6520     0.4600 p5         1 CV1       1.458800
     13 PB          -3.0240    -2.6600    -1.2680 p5         1 CV1       1.454800
     14 C1           3.1480    -0.0490    -1.0330 c5         1 CV1       0.311300
     15 O1A         -0.2750    -3.8950     0.0680 o          1 CV1      -0.830000
     16 O1B         -3.2600    -2.3310    -2.7050 o          1 CV1      -0.842500
     17 C1D         -2.8390     1.9950     0.5690 c5         1 CV1       0.294300
     18 C7           4.2080    -0.7130    -0.0600 c5         1 CV1       0.069300
     19 O2           5.5750    -0.5800    -0.5070 oh         1 CV1      -0.709000
     20 O2A         -1.8770    -2.8430     1.6520 o          1 CV1      -0.830000
     21 O2B         -3.0640    -4.1390    -1.0750 o          1 CV1      -0.842500
     22 C2D         -4.0740     2.4960    -0.2460 c5         1 CV1       0.075300
     23 O2D         -4.2920     3.9190    -0.1370 oh         1 CV1      -0.728000
     24 C3           3.7900    -2.2220    -0.0390 c5         1 CV1       0.113300
     25 O3           4.4660    -2.9200    -1.0890 oh         1 CV1      -0.688000
     26 O3A         -1.7040    -1.9540    -0.7680 os         1 CV1      -0.708800
     27 C3D         -5.1990     1.6840     0.4540 c5         1 CV1       0.107300
     28 O3D         -5.5300     2.2840     1.7150 oh         1 CV1      -0.706000
     29 C9           2.2580    -2.1110    -0.2840 c5         1 CV1       0.127300
     30 O4           2.2080    -1.1110    -1.3350 os         1 CV1      -0.409000
     31 C4D         -4.4910     0.2940     0.6030 c5         1 CV1       0.152300
     32 O4D         -3.0960     0.6070     0.8620 os         1 CV1      -0.399000
     33 C10          1.4520    -1.7030     1.0050 c3         1 CV1       0.254600
     34 O5           0.0520    -1.4670     0.7620 os         1 CV1      -0.578400
     35 C5D         -4.5980    -0.6080    -0.6600 c3         1 CV1       0.216600
     36 O5D         -4.1190    -1.9230    -0.3390 os         1 CV1      -0.567400
     37 H2          -1.9290     0.7370    -1.6600 h5         1 CV1       0.133100
     38 HN6         -1.6900     4.4760     1.0350 hn         1 CV1       0.368000
     39 HN6A         0.0030     4.6430     1.3840 hn         1 CV1       0.368000
     40 H1           3.6380     0.2690    -1.9630 h2         1 CV1       0.108700
     41 H1D         -2.7810     2.5380     1.5200 h2         1 CV1       0.068700
     42 H6           4.0970    -0.2910     0.9490 h1         1 CV1       0.060700
     43 HO2          6.1450    -0.4640     0.2930 ho         1 CV1       0.508000
     44 H2D         -3.9790     2.1990    -1.3010 h1         1 CV1       0.080700
     45 HO2D        -4.7860     4.2130    -0.9420 ho         1 CV1       0.524000
     46 H3           4.0110    -2.6880     0.9320 h1         1 CV1       0.050700
     47 HO3          5.2020    -2.3010    -1.3240 ho         1 CV1       0.499000
     48 H3D         -6.0960     1.6110    -0.1800 h1         1 CV1       0.070700
     49 HO3D        -5.3350     3.2450     1.5830 ho         1 CV1       0.507000
     50 H4           1.8680    -3.0590    -0.6700 h1         1 CV1       0.135700
     51 H4D         -4.9030    -0.2660     1.4530 h1         1 CV1       0.116700
     52 H5           1.5700    -2.5020     1.7490 h1         1 CV1       0.018700
     53 H5'A         1.8960    -0.8020     1.4450 h1         1 CV1       0.018700
     54 H5D         -5.6510    -0.6650    -0.9670 h1         1 CV1       0.020200
     55 H5DA        -4.0340    -0.1550    -1.4840 h1         1 CV1       0.020200
@<TRIPOS>BOND
     1     1     3 1   
     2     1     7 2   
     3     1    17 1   
     4     2    10 1   
     5     3     4 ar  
     6     3    37 1   
     7     4     5 ar  
     8     5     6 ar  
     9     5    11 1   
    10     6     7 ar  
    11     6     9 1   
    12     7     8 1   
    13     8    38 1   
    14     8    39 1   
    15     9    10 2   
    16    10    11 1   
    17    11    14 1   
    18    12    15 1   
    19    12    20 1   
    20    12    26 1   
    21    12    34 1   
    22    13    16 1   
    23    13    21 1   
    24    13    26 1   
    25    13    36 1   
    26    14    18 1   
    27    14    30 1   
    28    14    40 1   
    29    17    22 1   
    30    17    32 1   
    31    17    41 1   
    32    18    19 1   
    33    18    24 1   
    34    18    42 1   
    35    19    43 1   
    36    22    23 1   
    37    22    27 1   
    38    22    44 1   
    39    23    45 1   
    40    24    25 1   
    41    24    29 1   
    42    24    46 1   
    43    25    47 1   
    44    27    28 1   
    45    27    31 1   
    46    27    48 1   
    47    28    49 1   
    48    29    30 1   
    49    29    33 1   
    50    29    50 1   
    51    31    32 1   
    52    31    35 1   
    53    31    51 1   
    54    33    34 1   
    55    33    52 1   
    56    33    53 1   
    57    35    36 1   
    58    35    54 1   
    59    35    55 1   
@<TRIPOS>SUBSTRUCTURE
     1 CV1         1 TEMP              0 ****  ****    0 ROOT
