@<TRIPOS>MOLECULE
CV2
   24    24     1     0     0
SMALL
bcc


@<TRIPOS>ATOM
      1 C05          1.1510     1.0600     0.1450 c3         1 CV2       0.022500
      2 C07         -0.1200     1.3310    -0.6020 ce         1 CV2       0.073600
      3 C08         -0.2100     2.2580    -1.5560 c2         1 CV2      -0.324000
      4 C09         -1.3270     0.5410    -0.2420 ca         1 CV2      -0.006800
      5 C10         -1.5110    -0.7510    -0.7330 ca         1 CV2      -0.090500
      6 C11         -2.6620    -1.4610    -0.4240 ca         1 CV2      -0.159500
      7 C12         -3.6350    -0.9040     0.3990 ca         1 CV2      -0.170000
      8 C13         -3.4510     0.3750     0.9050 ca         1 CV2      -0.159500
      9 C14         -2.3040     1.0910     0.5850 ca         1 CV2      -0.090500
     10 N06          0.9240     1.2240     1.5940 n8         1 CV2      -0.886800
     11 O01          3.4090    -0.3960     0.1950 o          1 CV2      -0.915833
     12 O03          1.1980    -1.6180     0.6320 o          1 CV2      -0.915833
     13 O04          1.7820    -0.8220    -1.7510 o          1 CV2      -0.915833
     14 P02          1.9500    -0.6040    -0.2420 p5         1 CV2       1.100700
     15 H1           1.8660     1.8330    -0.1610 h1         1 CV2       0.039700
     16 H2          -1.1270     2.4270    -2.1080 ha         1 CV2       0.079000
     17 H3           0.6410     2.8710    -1.8280 ha         1 CV2       0.079000
     18 H4          -0.7490    -1.1830    -1.3660 ha         1 CV2       0.157500
     19 H5          -2.8030    -2.4580    -0.8250 ha         1 CV2       0.095500
     20 H6          -4.5290    -1.4630     0.6420 ha         1 CV2       0.085000
     21 H7          -4.2010     0.8200     1.5480 ha         1 CV2       0.095500
     22 H8          -2.1650     2.0910     0.9760 ha         1 CV2       0.157500
     23 H9           0.4730     0.3680     1.9050 hn         1 CV2       0.323800
     24 H10          1.8370     1.1830     2.0350 hn         1 CV2       0.323800
@<TRIPOS>BOND
     1     1     2 1   
     2     1    10 1   
     3     1    14 1   
     4     1    15 1   
     5     2     3 2   
     6     2     4 1   
     7     3    16 1   
     8     3    17 1   
     9     4     5 ar  
    10     4     9 ar  
    11     5     6 ar  
    12     5    18 1   
    13     6     7 ar  
    14     6    19 1   
    15     7     8 ar  
    16     7    20 1   
    17     8     9 ar  
    18     8    21 1   
    19     9    22 1   
    20    10    23 1   
    21    10    24 1   
    22    11    14 1   
    23    12    14 1   
    24    13    14 1   
@<TRIPOS>SUBSTRUCTURE
     1 CV2         1 TEMP              0 ****  ****    0 ROOT
