@<TRIPOS>MOLECULE
CV2
   24    24     1     0     0
SMALL
No Charge or Current Charge


@<TRIPOS>ATOM
      1 C05          1.1640     1.1570     0.1520 c3         1 CV2      -0.135300
      2 C07         -0.1110     1.2540    -0.6960 ce         1 CV2       0.073600
      3 C08         -0.1550     2.0830    -1.7650 c2         1 CV2      -0.424000
      4 C09         -1.3080     0.4210    -0.3500 ca         1 CV2      -0.006800
      5 C10         -1.9510    -0.3340    -1.3540 ca         1 CV2      -0.072500
      6 C11         -3.0960    -1.0950    -1.0550 ca         1 CV2      -0.141500
      7 C12         -3.6120    -1.1050     0.2500 ca         1 CV2      -0.152000
      8 C13         -2.9840    -0.3540     1.2550 ca         1 CV2      -0.141500
      9 C14         -1.8380     0.4060     0.9580 ca         1 CV2      -0.072500
     10 N06          1.1350     2.1530     1.3050 n8         1 CV2      -0.997200
     11 O01          3.1930    -0.6440     0.7330 o          1 CV2      -0.915833
     12 O03          0.9880    -1.2650     1.5480 o          1 CV2      -0.915833
     13 O04          1.5160    -1.4520    -0.8410 o          1 CV2      -0.915833
     14 P02          1.7360    -0.6610     0.4060 p5         1 CV2       1.258500
     15 H1           1.9810     1.5010    -0.4950 h1         1 CV2       0.039700
     16 H2          -1.0470     2.1730    -2.3820 ha         1 CV2       0.129000
     17 H3           0.6990     2.6990    -2.0430 ha         1 CV2       0.129000
     18 H4          -1.5570    -0.3320    -2.3680 ha         1 CV2       0.139500
     19 H5          -3.5810    -1.6750    -1.8370 ha         1 CV2       0.077500
     20 H6          -4.4980    -1.6920     0.4810 ha         1 CV2       0.067000
     21 H7          -3.3840    -0.3570     2.2660 ha         1 CV2       0.077500
     22 H8          -1.3690     0.9910     1.7430 ha         1 CV2       0.139500
     23 H9           0.4750     1.8200     2.0170 hn         1 CV2       0.379000
     24 H10          2.0390     2.1190     1.7950 hn         1 CV2       0.379000
@<TRIPOS>BOND
     1     1     2 1   
     2     1    10 1   
     3     1    14 1   
     4     1    15 1   
     5     2     3 2   
     6     2     4 1   
     7     3    16 1   
     8     3    17 1   
     9     4     5 ar  
    10     4     9 ar  
    11     5     6 ar  
    12     5    18 1   
    13     6     7 ar  
    14     6    19 1   
    15     7     8 ar  
    16     7    20 1   
    17     8     9 ar  
    18     8    21 1   
    19     9    22 1   
    20    10    23 1   
    21    10    24 1   
    22    11    14 1   
    23    12    14 1   
    24    13    14 1   
@<TRIPOS>SUBSTRUCTURE
     1 CV2         1 TEMP              0 ****  ****    0 ROOT
