@<TRIPOS>MOLECULE
CV3
   38    40     1     0     0
SMALL
abcg2


@<TRIPOS>ATOM
      1 C13         -4.7390    -0.8370     1.2200 ca         1 CV3      -0.160000
      2 C15         -3.0130    -2.4620    -0.1950 ca         1 CV3      -0.040000
      3 C17         -0.4880     1.0660    -2.2870 c3         1 CV3       0.094300
      4 C20          1.2650    -0.2820     0.1480 ca         1 CV3      -0.098000
      5 C21          3.6270     0.0880     0.3900 ca         1 CV3      -0.188300
      6 C01         -2.0320    -0.5870    -1.4410 c          1 CV3       0.584600
      7 C02         -1.4160     1.2840    -0.0080 cc         1 CV3      -0.028600
      8 C03         -0.3570     1.5360     0.7640 cf         1 CV3      -0.124200
      9 C04          2.0730     1.8110     1.0000 ca         1 CV3      -0.098000
     10 C05          2.5670    -0.7380     0.0340 ca         1 CV3      -0.063000
     11 C06         -2.7200     1.9470     0.2970 c          1 CV3       0.569200
     12 C07         -4.7960    -2.2080     1.3780 ca         1 CV3      -0.062000
     13 C08          5.0370    -0.3790     0.2070 c3         1 CV3       0.356300
     14 O09         -2.8050     3.1300     0.5560 o          1 CV3      -0.524000
     15 N10         -3.8110     1.1380     0.2460 ns         1 CV3      -0.397100
     16 C11         -3.8030    -0.2580     0.3620 ca         1 CV3       0.095600
     17 C12         -2.9420    -1.0780    -0.3710 ca         1 CV3      -0.169600
     18 C14         -3.9170    -3.0290     0.6810 ca         1 CV3      -0.134000
     19 N16         -1.3540     0.5660    -1.2240 n          1 CV3      -0.336000
     20 O18         -1.8800    -1.2260    -2.4700 o          1 CV3      -0.541000
     21 C19          0.9990     1.0050     0.6190 ca         1 CV3      -0.037800
     22 C23          3.3770     1.3650     0.8760 ca         1 CV3      -0.063000
     23 F81          5.8690     0.1520     1.1100 f          1 CV3      -0.112667
     24 F82          5.1500    -1.7080     0.3030 f          1 CV3      -0.112667
     25 F83          5.5120    -0.0370    -1.0010 f          1 CV3      -0.112667
     26 H131        -5.4180    -0.1970     1.7700 ha         1 CV3       0.120000
     27 H151        -2.3490    -3.0960    -0.7660 ha         1 CV3       0.135000
     28 H172        -1.0430     1.1430    -3.2200 h1         1 CV3       0.050700
     29 H171        -0.1320     2.0550    -2.0130 h1         1 CV3       0.050700
     30 H173         0.3730     0.4170    -2.4450 h1         1 CV3       0.050700
     31 H201         0.4580    -0.9520    -0.1110 ha         1 CV3       0.127000
     32 H031        -0.5030     2.2370     1.5780 ha         1 CV3       0.205000
     33 H041         1.8860     2.8040     1.3890 ha         1 CV3       0.127000
     34 H051         2.7380    -1.7420    -0.3270 ha         1 CV3       0.133500
     35 H071        -5.5250    -2.6370     2.0530 ha         1 CV3       0.120000
     36 H101        -4.6800     1.5910     0.4980 hn         1 CV3       0.324500
     37 H141        -3.9470    -4.1020     0.8110 ha         1 CV3       0.125000
     38 H231         4.1870     2.0220     1.1670 ha         1 CV3       0.133500
@<TRIPOS>BOND
     1     1    12 ar  
     2     1    16 ar  
     3     1    26 1   
     4     2    17 ar  
     5     2    18 ar  
     6     2    27 1   
     7     3    19 1   
     8     3    28 1   
     9     3    29 1   
    10     3    30 1   
    11     4    10 ar  
    12     4    21 ar  
    13     4    31 1   
    14     5    10 ar  
    15     5    13 1   
    16     5    22 ar  
    17     6    17 1   
    18     6    19 1   
    19     6    20 2   
    20     7     8 2   
    21     7    11 1   
    22     7    19 1   
    23     8    21 1   
    24     8    32 1   
    25     9    21 ar  
    26     9    22 ar  
    27     9    33 1   
    28    10    34 1   
    29    11    14 2   
    30    11    15 1   
    31    12    18 ar  
    32    12    35 1   
    33    13    23 1   
    34    13    24 1   
    35    13    25 1   
    36    15    16 1   
    37    15    36 1   
    38    16    17 ar  
    39    18    37 1   
    40    22    38 1   
@<TRIPOS>SUBSTRUCTURE
     1 CV3         1 TEMP              0 ****  ****    0 ROOT
