@<TRIPOS>MOLECULE
CV3
   38    40     1     0     0
SMALL
No Charge or Current Charge


@<TRIPOS>ATOM
      1 C13         -5.0040    -0.8740     1.2290 ca         1 CV3      -0.160000
      2 C15         -3.4860    -2.5990    -0.3460 ca         1 CV3      -0.040000
      3 C17         -0.5270     0.8520    -2.2900 c3         1 CV3       0.094300
      4 C20          1.5270    -0.1100     0.0170 ca         1 CV3      -0.098000
      5 C21          3.9140     0.2690     0.3910 ca         1 CV3      -0.188300
      6 C01         -2.1480    -0.7440    -1.3460 c          1 CV3       0.584600
      7 C02         -1.3630     1.2270     0.0210 cc         1 CV3      -0.028600
      8 C03         -0.1590     1.7130     0.4900 cf         1 CV3      -0.124200
      9 C04          2.2850     2.0350     0.8500 ca         1 CV3      -0.098000
     10 C05          2.8550    -0.5700    -0.0130 ca         1 CV3      -0.063000
     11 C06         -2.6220     1.7670     0.6320 c          1 CV3       0.569200
     12 C07         -5.2800    -2.2480     1.2460 ca         1 CV3      -0.062000
     13 C08          5.3640    -0.2270     0.3480 c3         1 CV3       0.356300
     14 O09         -2.6680     2.8190     1.2550 o          1 CV3      -0.524000
     15 N10         -3.7710     1.0340     0.5310 ns         1 CV3      -0.397100
     16 C11         -3.9600    -0.3510     0.4420 ca         1 CV3       0.095600
     17 C12         -3.1870    -1.2130    -0.3630 ca         1 CV3      -0.169600
     18 C14         -4.5140    -3.1130     0.4580 ca         1 CV3      -0.134000
     19 N16         -1.4060     0.4500    -1.1560 n          1 CV3      -0.336000
     20 O18         -1.9620    -1.4120    -2.3590 o          1 CV3      -0.541000
     21 C19          1.2290     1.2020     0.4360 ca         1 CV3      -0.037800
     22 C23          3.6150     1.5790     0.8210 ca         1 CV3      -0.063000
     23 F81          6.1400     0.3650     1.2850 f          1 CV3      -0.112667
     24 F82          5.4580    -1.5610     0.5590 f          1 CV3      -0.112667
     25 F83          5.9330     0.0230    -0.8520 f          1 CV3      -0.112667
     26 H131        -5.6030    -0.2110     1.8480 ha         1 CV3       0.120000
     27 H151        -2.9190    -3.2910    -0.9670 ha         1 CV3       0.135000
     28 H172        -1.1210     0.9280    -3.2100 h1         1 CV3       0.050700
     29 H171        -0.0670     1.8310    -2.1030 h1         1 CV3       0.050700
     30 H173         0.2650     0.1080    -2.4400 h1         1 CV3       0.050700
     31 H201         0.7320    -0.7920    -0.2700 ha         1 CV3       0.127000
     32 H031        -0.2640     2.4870     1.2520 ha         1 CV3       0.205000
     33 H041         2.0800     3.0490     1.1850 ha         1 CV3       0.127000
     34 H051         3.0540    -1.5860    -0.3490 ha         1 CV3       0.133500
     35 H071        -6.0850    -2.6390     1.8660 ha         1 CV3       0.120000
     36 H101        -4.5760     1.5310     0.8900 hn         1 CV3       0.324500
     37 H141        -4.7230    -4.1810     0.4590 ha         1 CV3       0.125000
     38 H231         4.4100     2.2540     1.1320 ha         1 CV3       0.133500
@<TRIPOS>BOND
     1     1    12 ar  
     2     1    16 ar  
     3     1    26 1   
     4     2    17 ar  
     5     2    18 ar  
     6     2    27 1   
     7     3    19 1   
     8     3    28 1   
     9     3    29 1   
    10     3    30 1   
    11     4    10 ar  
    12     4    21 ar  
    13     4    31 1   
    14     5    10 ar  
    15     5    13 1   
    16     5    22 ar  
    17     6    17 1   
    18     6    19 1   
    19     6    20 2   
    20     7     8 2   
    21     7    11 1   
    22     7    19 1   
    23     8    21 1   
    24     8    32 1   
    25     9    21 ar  
    26     9    22 ar  
    27     9    33 1   
    28    10    34 1   
    29    11    14 2   
    30    11    15 1   
    31    12    18 ar  
    32    12    35 1   
    33    13    23 1   
    34    13    24 1   
    35    13    25 1   
    36    15    16 1   
    37    15    36 1   
    38    16    17 ar  
    39    18    37 1   
    40    22    38 1   
@<TRIPOS>SUBSTRUCTURE
     1 CV3         1 TEMP              0 ****  ****    0 ROOT
