@<TRIPOS>MOLECULE
CV4
   45    47     1     0     0
SMALL
No Charge or Current Charge


@<TRIPOS>ATOM
      1 C10         -3.4490     0.5750     0.1970 ca         1 CV4       0.296000
      2 C13          0.1660    -0.4820     0.3520 ca         1 CV4      -0.359000
      3 C17          4.7500    -1.5380     1.1140 ca         1 CV4      -0.164500
      4 C20          5.9040     0.1660    -0.7870 ca         1 CV4      -0.028000
      5 C21          4.5070     0.1060    -0.6450 ca         1 CV4      -0.164500
      6 C22          8.2630    -0.5610    -0.1230 c3         1 CV4       0.362300
      7 C01         -7.1000    -1.4800     1.7370 c3         1 CV4       0.179100
      8 N02         -7.9830    -0.9980     0.6560 n7         1 CV4      -0.861300
      9 S03         -7.2850    -0.5620    -0.7970 sy         1 CV4       1.145600
     10 O04         -6.8470    -1.8140    -1.4170 o          1 CV4      -0.531000
     11 O05         -8.2520     0.3390    -1.4290 o          1 CV4      -0.531000
     12 C06         -5.8580     0.4010    -0.2470 ca         1 CV4      -0.276500
     13 C07         -6.0330     1.7330     0.1790 ca         1 CV4      -0.041000
     14 C08         -4.9270     2.4780     0.6200 ca         1 CV4      -0.105000
     15 C09         -3.6440     1.9020     0.6320 ca         1 CV4      -0.077000
     16 N11         -2.1890    -0.0440     0.2070 nu         1 CV4      -0.936900
     17 C12         -0.8820     0.4140     0.1390 ca         1 CV4       0.412900
     18 C14          1.4650     0.0120     0.2390 ca         1 CV4       0.411900
     19 N15          2.5350    -0.8380     0.4780 nu         1 CV4      -0.932900
     20 C16          3.9200    -0.7380     0.3140 ca         1 CV4       0.344000
     21 C18          6.1480    -1.4840     0.9800 ca         1 CV4      -0.028000
     22 C19          6.7380    -0.6320     0.0220 ca         1 CV4      -0.233300
     23 F23          8.6460    -0.2670    -1.3860 f          1 CV4      -0.115667
     24 F24          8.7880     0.3900     0.6810 f          1 CV4      -0.115667
     25 F25          8.8660    -1.7290     0.2000 f          1 CV4      -0.115667
     26 N26          1.7090     1.3000    -0.0500 nb         1 CV4      -0.267000
     27 C27          0.6310     2.0830    -0.2480 ca         1 CV4       0.197900
     28 N28         -0.6590     1.7010    -0.1740 nb         1 CV4      -0.270000
     29 C29         -4.5650    -0.1720    -0.2290 ca         1 CV4      -0.088000
     30 H1          -0.0230    -1.5220     0.5950 ha         1 CV4       0.130000
     31 H2           4.3120    -2.2000     1.8560 ha         1 CV4       0.137000
     32 H3           6.3320     0.8340    -1.5330 ha         1 CV4       0.130000
     33 H4           3.8870     0.7100    -1.2990 ha         1 CV4       0.137000
     34 H5          -7.6940    -1.8290     2.5920 h1         1 CV4       0.052367
     35 H6          -6.4740    -2.3180     1.3990 h1         1 CV4       0.052367
     36 H7          -6.4390    -0.6820     2.1000 h1         1 CV4       0.052367
     37 H8          -8.5830    -1.7640     0.3500 hn         1 CV4       0.478000
     38 H9          -7.0230     2.1880     0.1790 ha         1 CV4       0.142000
     39 H10         -5.0650     3.5020     0.9600 ha         1 CV4       0.122000
     40 H11         -2.8090     2.4870     1.0010 ha         1 CV4       0.154000
     41 H12         -2.2380    -1.0620     0.1930 hn         1 CV4       0.498000
     42 H13          2.2470    -1.7000     0.9380 hn         1 CV4       0.498000
     43 H14          6.7670    -2.1050     1.6250 ha         1 CV4       0.130000
     44 H15          0.8200     3.1270    -0.4920 h5         1 CV4       0.051100
     45 H16         -4.4220    -1.1990    -0.5550 ha         1 CV4       0.126000
@<TRIPOS>BOND
     1     1    15 ar  
     2     1    16 1   
     3     1    29 ar  
     4     2    17 ar  
     5     2    18 ar  
     6     2    30 1   
     7     3    20 ar  
     8     3    21 ar  
     9     3    31 1   
    10     4     5 ar  
    11     4    22 ar  
    12     4    32 1   
    13     5    20 ar  
    14     5    33 1   
    15     6    22 1   
    16     6    23 1   
    17     6    24 1   
    18     6    25 1   
    19     7     8 1   
    20     7    34 1   
    21     7    35 1   
    22     7    36 1   
    23     8     9 1   
    24     8    37 1   
    25     9    10 2   
    26     9    11 2   
    27     9    12 1   
    28    12    13 ar  
    29    12    29 ar  
    30    13    14 ar  
    31    13    38 1   
    32    14    15 ar  
    33    14    39 1   
    34    15    40 1   
    35    16    17 1   
    36    16    41 1   
    37    17    28 ar  
    38    18    19 1   
    39    18    26 ar  
    40    19    20 1   
    41    19    42 1   
    42    21    22 ar  
    43    21    43 1   
    44    26    27 ar  
    45    27    28 ar  
    46    27    44 1   
    47    29    45 1   
@<TRIPOS>SUBSTRUCTURE
     1 CV4         1 TEMP              0 ****  ****    0 ROOT
