@<TRIPOS>MOLECULE
CV4
   45    47     1     0     0
SMALL
bcc


@<TRIPOS>ATOM
      1 C10         -3.3280     0.4400     0.0660 ca         1 CV4       0.157600
      2 C13          0.2210    -0.6670     0.1260 ca         1 CV4      -0.507600
      3 C17          4.7500    -1.9150     0.2510 ca         1 CV4      -0.182500
      4 C20          5.9330     0.5570    -0.0760 ca         1 CV4      -0.046000
      5 C21          4.5500     0.4640    -0.0410 ca         1 CV4      -0.182500
      6 C22          8.2200    -0.4900     0.0040 c3         1 CV4       0.726200
      7 C01         -7.9250    -0.6270     2.0150 c3         1 CV4       0.179100
      8 N02         -7.5240    -1.4830     0.9070 n7         1 CV4      -0.806100
      9 S03         -7.1260    -0.7830    -0.5250 sy         1 CV4       1.287200
     10 O04         -6.7210    -1.8630    -1.4100 o          1 CV4      -0.601800
     11 O05         -8.2300     0.0860    -0.8950 o          1 CV4      -0.601800
     12 C06         -5.7130     0.2480    -0.2180 ca         1 CV4      -0.276500
     13 C07         -5.8950     1.5980     0.0430 ca         1 CV4      -0.059000
     14 C08         -4.7690     2.3590     0.3180 ca         1 CV4      -0.123000
     15 C09         -3.5000     1.8020     0.3350 ca         1 CV4      -0.095000
     16 N11         -2.1100    -0.2270     0.0810 nu         1 CV4      -0.743300
     17 C12         -0.8320     0.2440     0.0810 ca         1 CV4       0.741200
     18 C14          1.5110    -0.1420     0.1100 ca         1 CV4       0.740200
     19 N15          2.5690    -1.0010     0.1630 nu         1 CV4      -0.739300
     20 C16          3.9350    -0.7800     0.1230 ca         1 CV4       0.205600
     21 C18          6.1230    -1.8120     0.2170 ca         1 CV4      -0.046000
     22 C19          6.7320    -0.5690     0.0530 ca         1 CV4      -0.233300
     23 F23          8.7200    -1.1030    -1.0830 f          1 CV4      -0.236967
     24 F24          8.6720     0.7670    -0.0190 f          1 CV4      -0.236967
     25 F25          8.7890    -1.0910     1.0610 f          1 CV4      -0.236967
     26 N26          1.7280     1.1750     0.0510 nb         1 CV4      -0.793000
     27 C27          0.6520     1.9380     0.0140 ca         1 CV4       0.723900
     28 N28         -0.6110     1.5610     0.0270 nb         1 CV4      -0.796000
     29 C29         -4.4570    -0.3350    -0.2130 ca         1 CV4      -0.106000
     30 H1           0.0480    -1.7340     0.1730 ha         1 CV4       0.148000
     31 H2           4.2970    -2.8900     0.3840 ha         1 CV4       0.155000
     32 H3           6.3700     1.5370    -0.2080 ha         1 CV4       0.148000
     33 H4           3.9550     1.3570    -0.1400 ha         1 CV4       0.155000
     34 H5          -8.1910    -1.2730     2.8480 h1         1 CV4       0.052367
     35 H6          -7.1360     0.0550     2.3460 h1         1 CV4       0.052367
     36 H7          -8.8040    -0.0490     1.7430 h1         1 CV4       0.052367
     37 H8          -6.8720    -2.2150     1.1640 hn         1 CV4       0.422800
     38 H9          -6.8760     2.0500     0.0290 ha         1 CV4       0.160000
     39 H10         -4.8790     3.4150     0.5240 ha         1 CV4       0.140000
     40 H11         -2.6470     2.4250     0.5470 ha         1 CV4       0.172000
     41 H12         -2.1850    -1.2320     0.0420 hn         1 CV4       0.442800
     42 H13          2.3100    -1.9730     0.2460 hn         1 CV4       0.442800
     43 H14          6.7140    -2.7130     0.3230 ha         1 CV4       0.148000
     44 H15          0.8300     3.0080    -0.0310 h5         1 CV4       0.051100
     45 H16         -4.3410    -1.3900    -0.4320 ha         1 CV4       0.144000
@<TRIPOS>BOND
     1     1    15 ar  
     2     1    16 1   
     3     1    29 ar  
     4     2    17 ar  
     5     2    18 ar  
     6     2    30 1   
     7     3    20 ar  
     8     3    21 ar  
     9     3    31 1   
    10     4     5 ar  
    11     4    22 ar  
    12     4    32 1   
    13     5    20 ar  
    14     5    33 1   
    15     6    22 1   
    16     6    23 1   
    17     6    24 1   
    18     6    25 1   
    19     7     8 1   
    20     7    34 1   
    21     7    35 1   
    22     7    36 1   
    23     8     9 1   
    24     8    37 1   
    25     9    10 2   
    26     9    11 2   
    27     9    12 1   
    28    12    13 ar  
    29    12    29 ar  
    30    13    14 ar  
    31    13    38 1   
    32    14    15 ar  
    33    14    39 1   
    34    15    40 1   
    35    16    17 1   
    36    16    41 1   
    37    17    28 ar  
    38    18    19 1   
    39    18    26 ar  
    40    19    20 1   
    41    19    42 1   
    42    21    22 ar  
    43    21    43 1   
    44    26    27 ar  
    45    27    28 ar  
    46    27    44 1   
    47    29    45 1   
@<TRIPOS>SUBSTRUCTURE
     1 CV4         1 TEMP              0 ****  ****    0 ROOT
