@<TRIPOS>MOLECULE
CV5
   70    74     1     0     0
SMALL
abcg2


@<TRIPOS>ATOM
      1 C4           6.5120     0.0810     1.9760 ca         1 CV5      -0.219000
      2 C5           5.1220     0.1800     2.1880 ca         1 CV5      -0.080000
      3 C6           6.2020     1.0340    -0.2320 ca         1 CV5      -0.060000
      4 C11          4.8030     1.1180     0.0030 ca         1 CV5       0.008000
      5 C7           6.7290     1.4860    -1.4640 ca         1 CV5      -0.089000
      6 C8           5.9070     2.0050    -2.4280 ca         1 CV5      -0.121000
      7 C9           4.5210     2.0900    -2.2030 ca         1 CV5      -0.104000
      8 C10          3.9850     1.6550    -1.0200 ca         1 CV5      -0.089000
      9 C12          4.2630     0.6800     1.2490 ca         1 CV5      -0.097300
     10 C13          2.7940     0.7870     1.5530 c3         1 CV5       0.220100
     11 C3           7.0500     0.4990     0.7860 ca         1 CV5       0.150100
     12 C1           9.2570    -0.0560     1.4460 c3         1 CV5       0.150900
     13 O2           8.3570     0.4510     0.4810 os         1 CV5      -0.342100
     14 N14          1.9560    -0.0150     0.6790 n3         1 CV5      -0.729600
     15 C15          0.5550     0.3170     0.8880 c6         1 CV5       0.251100
     16 C16         -0.2990    -0.5810     0.0620 cc         1 CV5      -0.147300
     17 C17          2.2190    -1.4390     0.7820 c6         1 CV5       0.175800
     18 C18          1.5940    -2.1930    -0.3910 c6         1 CV5      -0.002100
     19 C19          0.1950    -1.7180    -0.5240 cd         1 CV5      -0.165300
     20 N20         -0.8250    -2.2850    -1.2060 na         1 CV5       0.141800
     21 C21         -0.8080    -3.5390    -1.9220 c3         1 CV5       0.080600
     22 C22         -1.1830    -4.6970    -1.0080 c3         1 CV5       0.138600
     23 O23         -1.1380    -5.8690    -1.7830 oh         1 CV5      -0.661000
     24 N24         -1.9500    -1.6000    -1.0800 nd         1 CV5      -0.497800
     25 C25         -1.6530    -0.5590    -0.3150 cc         1 CV5       0.223500
     26 C26         -2.6630     0.4520     0.0550 c          1 CV5       0.525600
     27 O27         -2.3690     1.3970     0.7770 o          1 CV5      -0.631100
     28 N28         -3.8920     0.2600    -0.4480 ns         1 CV5      -0.455900
     29 C29         -5.0020     1.1390    -0.1490 c3         1 CV5       0.166000
     30 C30         -6.1380     0.8470    -1.1250 c3         1 CV5      -0.226400
     31 C37         -5.7870     1.1700    -2.5930 c          1 CV5       0.716000
     32 O39         -5.1430     2.2180    -2.7930 o          1 CV5      -0.728500
     33 O38         -6.2020     0.3720    -3.4550 o          1 CV5      -0.728500
     34 C31         -5.4690     1.0020     1.2830 ca         1 CV5      -0.063300
     35 C32         -5.8700     2.1300     1.9910 ca         1 CV5      -0.099500
     36 C33         -6.3630     2.0220     3.2850 ca         1 CV5      -0.121500
     37 C34         -6.4580     0.7760     3.8910 ca         1 CV5      -0.133000
     38 C35         -6.0550    -0.3560     3.1930 ca         1 CV5      -0.121500
     39 C36         -5.5650    -0.2430     1.8990 ca         1 CV5      -0.099500
     40 H1           7.1260    -0.3290     2.7650 ha         1 CV5       0.111000
     41 H2           4.7310    -0.1610     3.1400 ha         1 CV5       0.106000
     42 H3           7.7920     1.4260    -1.6490 ha         1 CV5       0.118000
     43 H4           6.3230     2.3500    -3.3650 ha         1 CV5       0.108000
     44 H5           3.8770     2.4980    -2.9710 ha         1 CV5       0.118000
     45 H6           2.9160     1.7010    -0.8690 ha         1 CV5       0.145000
     46 H7           2.6370     0.5300     2.6140 h1         1 CV5       0.039200
     47 H8           2.4740     1.8290     1.4450 h1         1 CV5       0.039200
     48 H9           9.2450     0.5390     2.3630 h1         1 CV5       0.038033
     49 H10          9.0380    -1.0970     1.6990 h1         1 CV5       0.038033
     50 H11         10.2480    -0.0020     1.0030 h1         1 CV5       0.038033
     51 H13          0.2660     0.2320     1.9510 h1         1 CV5       0.056700
     52 H14          0.3980     1.3620     0.6130 h1         1 CV5       0.056700
     53 H15          3.2960    -1.6020     0.7680 h1         1 CV5       0.032700
     54 H16          1.8440    -1.8600     1.7310 h1         1 CV5       0.032700
     55 H17          2.1600    -1.9960    -1.3060 hc         1 CV5       0.052700
     56 H18          1.6470    -3.2680    -0.2050 hc         1 CV5       0.052700
     57 H19         -1.5060    -3.4640    -2.7550 h1         1 CV5       0.079700
     58 H20          0.1910    -3.6870    -2.3340 h1         1 CV5       0.079700
     59 H21         -0.4820    -4.7340    -0.1660 h1         1 CV5       0.032200
     60 H22         -2.1810    -4.5130    -0.5910 h1         1 CV5       0.032200
     61 H23         -1.3430    -6.6150    -1.2120 ho         1 CV5       0.445000
     62 H24         -4.0510    -0.5530    -1.0220 hn         1 CV5       0.339500
     63 H25         -4.6820     2.1710    -0.3130 h1         1 CV5       0.096700
     64 H26         -6.4600    -0.1930    -1.0210 hc         1 CV5       0.030700
     65 H27         -6.9960     1.4610    -0.8350 hc         1 CV5       0.030700
     66 H29         -5.7900     3.1070     1.5280 ha         1 CV5       0.114000
     67 H30         -6.6650     2.9120     3.8220 ha         1 CV5       0.095500
     68 H31         -6.8400     0.6860     4.9000 ha         1 CV5       0.093000
     69 H32         -6.1240    -1.3320     3.6570 ha         1 CV5       0.095500
     70 H33         -5.2480    -1.1340     1.3700 ha         1 CV5       0.114000
@<TRIPOS>BOND
     1     1     2 ar  
     2     1    11 ar  
     3     1    40 1   
     4     2     9 ar  
     5     2    41 1   
     6     3     4 ar  
     7     3     5 ar  
     8     3    11 ar  
     9     4     8 ar  
    10     4     9 ar  
    11     5     6 ar  
    12     5    42 1   
    13     6     7 ar  
    14     6    43 1   
    15     7     8 ar  
    16     7    44 1   
    17     8    45 1   
    18     9    10 1   
    19    10    14 1   
    20    10    46 1   
    21    10    47 1   
    22    11    13 1   
    23    12    13 1   
    24    12    48 1   
    25    12    49 1   
    26    12    50 1   
    27    14    15 1   
    28    14    17 1   
    29    15    16 1   
    30    15    51 1   
    31    15    52 1   
    32    16    19 2   
    33    16    25 1   
    34    17    18 1   
    35    17    53 1   
    36    17    54 1   
    37    18    19 1   
    38    18    55 1   
    39    18    56 1   
    40    19    20 1   
    41    20    21 1   
    42    20    24 1   
    43    21    22 1   
    44    21    57 1   
    45    21    58 1   
    46    22    23 1   
    47    22    59 1   
    48    22    60 1   
    49    23    61 1   
    50    24    25 2   
    51    25    26 1   
    52    26    27 2   
    53    26    28 1   
    54    28    29 1   
    55    28    62 1   
    56    29    30 1   
    57    29    34 1   
    58    29    63 1   
    59    30    31 1   
    60    30    64 1   
    61    30    65 1   
    62    31    32 1   
    63    31    33 1   
    64    34    35 ar  
    65    34    39 ar  
    66    35    36 ar  
    67    35    66 1   
    68    36    37 ar  
    69    36    67 1   
    70    37    38 ar  
    71    37    68 1   
    72    38    39 ar  
    73    38    69 1   
    74    39    70 1   
@<TRIPOS>SUBSTRUCTURE
     1 CV5         1 TEMP              0 ****  ****    0 ROOT
