@<TRIPOS>MOLECULE
CV5
   70    74     1     0     0
SMALL
No Charge or Current Charge


@<TRIPOS>ATOM
      1 C4           6.5580     0.1410     1.8150 ca         1 CV5      -0.219000
      2 C5           5.1810     0.2680     2.0430 ca         1 CV5      -0.080000
      3 C6           6.2890     1.1610    -0.3860 ca         1 CV5      -0.060000
      4 C11          4.8920     1.2870    -0.1570 ca         1 CV5       0.008000
      5 C7           6.8380     1.6130    -1.6090 ca         1 CV5      -0.089000
      6 C8           6.0170     2.1820    -2.5940 ca         1 CV5      -0.121000
      7 C9           4.6400     2.3050    -2.3720 ca         1 CV5      -0.104000
      8 C10          4.0800     1.8610    -1.1640 ca         1 CV5      -0.089000
      9 C12          4.3360     0.8360     1.0700 ca         1 CV5      -0.097300
     10 C13          2.8410     0.9490     1.3880 c3         1 CV5       0.220100
     11 C3           7.1230     0.5860     0.6030 ca         1 CV5       0.150100
     12 C1           9.3970    -0.0990     1.3060 c3         1 CV5       0.150900
     13 O2           8.4810     0.4730     0.3560 os         1 CV5      -0.342100
     14 N14          1.9880     0.0350     0.5930 n3         1 CV5      -0.729600
     15 C15          0.5290     0.3230     0.7880 c6         1 CV5       0.251100
     16 C16         -0.3090    -0.7070     0.0660 cc         1 CV5      -0.147300
     17 C17          2.3150    -1.4150     0.7890 c6         1 CV5       0.175800
     18 C18          1.5920    -2.3270    -0.2440 c6         1 CV5      -0.002100
     19 C19          0.1550    -1.8930    -0.3870 cd         1 CV5      -0.165300
     20 N20         -0.9460    -2.5220    -0.9690 na         1 CV5       0.141800
     21 C21         -0.9640    -3.8430    -1.6160 c3         1 CV5       0.080600
     22 C22         -1.1840    -4.9920    -0.6130 c3         1 CV5       0.138600
     23 O23         -1.1730    -6.2560    -1.2940 oh         1 CV5      -0.661000
     24 N24         -2.1010    -1.7540    -0.8710 nd         1 CV5      -0.497800
     25 C25         -1.6900    -0.6580    -0.2340 cc         1 CV5       0.223500
     26 C26         -2.5830     0.4970     0.1430 c          1 CV5       0.525600
     27 O27         -2.2320     1.5040     0.7520 o          1 CV5      -0.631100
     28 N28         -3.8910     0.3200    -0.2600 ns         1 CV5      -0.455900
     29 C29         -4.9820     1.2640    -0.0240 c3         1 CV5       0.166000
     30 C30         -5.9510     1.3190    -1.2260 c3         1 CV5      -0.226400
     31 C37         -5.2230     1.8460    -2.4660 c          1 CV5       0.716000
     32 O39         -5.1560     3.0560    -2.6180 o          1 CV5      -0.728500
     33 O38         -4.7270     1.0370    -3.2340 o          1 CV5      -0.728500
     34 C31         -5.6990     0.9310     1.2850 ca         1 CV5      -0.063300
     35 C32         -5.6500     1.8360     2.3660 ca         1 CV5      -0.099500
     36 C33         -6.3010     1.5370     3.5750 ca         1 CV5      -0.121500
     37 C34         -7.0040     0.3300     3.7170 ca         1 CV5      -0.133000
     38 C35         -7.0540    -0.5800     2.6490 ca         1 CV5      -0.121500
     39 C36         -6.4030    -0.2830     1.4380 ca         1 CV5      -0.099500
     40 H1           7.1680    -0.3040     2.5950 ha         1 CV5       0.111000
     41 H2           4.7650    -0.0830     2.9850 ha         1 CV5       0.106000
     42 H3           7.9040     1.5270    -1.8050 ha         1 CV5       0.118000
     43 H4           6.4510     2.5260    -3.5310 ha         1 CV5       0.108000
     44 H5           4.0020     2.7430    -3.1370 ha         1 CV5       0.118000
     45 H6           3.0080     1.9650    -1.0270 ha         1 CV5       0.145000
     46 H7           2.6860     0.7570     2.4590 h1         1 CV5       0.039200
     47 H8           2.5350     1.9900     1.2190 h1         1 CV5       0.039200
     48 H9           9.3950     0.4720     2.2430 h1         1 CV5       0.038033
     49 H10          9.1300    -1.1410     1.5270 h1         1 CV5       0.038033
     50 H11         10.4170    -0.0880     0.9040 h1         1 CV5       0.038033
     51 H13          0.2760     0.3100     1.8590 h1         1 CV5       0.056700
     52 H14          0.3010     1.3310     0.4140 h1         1 CV5       0.056700
     53 H15          3.3960    -1.5910     0.6990 h1         1 CV5       0.032700
     54 H16          2.0240    -1.7250     1.8030 h1         1 CV5       0.032700
     55 H17          2.1020    -2.2510    -1.2130 hc         1 CV5       0.052700
     56 H18          1.6650    -3.3770     0.0710 hc         1 CV5       0.052700
     57 H19         -1.7640    -3.8550    -2.3650 h1         1 CV5       0.079700
     58 H20         -0.0100    -3.9880    -2.1350 h1         1 CV5       0.079700
     59 H21         -0.3900    -4.9620     0.1470 h1         1 CV5       0.032200
     60 H22         -2.1440    -4.8420    -0.1010 h1         1 CV5       0.032200
     61 H23         -1.3250    -6.9520    -0.6150 ho         1 CV5       0.445000
     62 H24         -4.0840    -0.5330    -0.7720 hn         1 CV5       0.339500
     63 H25         -4.5440     2.2680     0.0760 h1         1 CV5       0.096700
     64 H26         -6.3160     0.2980    -1.3960 hc         1 CV5       0.030700
     65 H27         -6.7370     2.0230    -0.9270 hc         1 CV5       0.030700
     66 H29         -5.1060     2.7730     2.2690 ha         1 CV5       0.114000
     67 H30         -6.2590     2.2420     4.4030 ha         1 CV5       0.095500
     68 H31         -7.5070     0.0990     4.6530 ha         1 CV5       0.093000
     69 H32         -7.5950    -1.5170     2.7580 ha         1 CV5       0.095500
     70 H33         -6.4450    -0.9990     0.6210 ha         1 CV5       0.114000
@<TRIPOS>BOND
     1     1     2 ar  
     2     1    11 ar  
     3     1    40 1   
     4     2     9 ar  
     5     2    41 1   
     6     3     4 ar  
     7     3     5 ar  
     8     3    11 ar  
     9     4     8 ar  
    10     4     9 ar  
    11     5     6 ar  
    12     5    42 1   
    13     6     7 ar  
    14     6    43 1   
    15     7     8 ar  
    16     7    44 1   
    17     8    45 1   
    18     9    10 1   
    19    10    14 1   
    20    10    46 1   
    21    10    47 1   
    22    11    13 1   
    23    12    13 1   
    24    12    48 1   
    25    12    49 1   
    26    12    50 1   
    27    14    15 1   
    28    14    17 1   
    29    15    16 1   
    30    15    51 1   
    31    15    52 1   
    32    16    19 2   
    33    16    25 1   
    34    17    18 1   
    35    17    53 1   
    36    17    54 1   
    37    18    19 1   
    38    18    55 1   
    39    18    56 1   
    40    19    20 1   
    41    20    21 1   
    42    20    24 1   
    43    21    22 1   
    44    21    57 1   
    45    21    58 1   
    46    22    23 1   
    47    22    59 1   
    48    22    60 1   
    49    23    61 1   
    50    24    25 2   
    51    25    26 1   
    52    26    27 2   
    53    26    28 1   
    54    28    29 1   
    55    28    62 1   
    56    29    30 1   
    57    29    34 1   
    58    29    63 1   
    59    30    31 1   
    60    30    64 1   
    61    30    65 1   
    62    31    32 1   
    63    31    33 1   
    64    34    35 ar  
    65    34    39 ar  
    66    35    36 ar  
    67    35    66 1   
    68    36    37 ar  
    69    36    67 1   
    70    37    38 ar  
    71    37    68 1   
    72    38    39 ar  
    73    38    69 1   
    74    39    70 1   
@<TRIPOS>SUBSTRUCTURE
     1 CV5         1 TEMP              0 ****  ****    0 ROOT
