@<TRIPOS>MOLECULE
CV6
   64    68     1     0     0
SMALL
abcg2


@<TRIPOS>ATOM
      1 N1         166.5800   170.8170   149.7550 ns         1 CV6      -0.135000
      2 C2         172.0960   174.4690   154.0980 c3         1 CV6      -0.085600
      3 C3         173.9460   173.5120   152.7430 c3         1 CV6       0.165600
      4 C5         170.2730   173.0220   152.4260 cc         1 CV6      -0.223200
      5 C6         169.5710   172.1190   151.5690 ca         1 CV6      -0.082800
      6 C7         168.2480   172.0580   151.1150 ca         1 CV6      -0.059000
      7 C8         167.8700   171.0170   150.2750 ca         1 CV6      -0.085000
      8 C9         168.8380   170.0550   149.9230 ca         1 CV6       0.127000
      9 C10        170.1430   170.0730   150.3520 ca         1 CV6      -0.143000
     10 C15        165.5240   171.6720   149.7370 c          1 CV6       0.642100
     11 C17        162.9800   171.6700   149.6050 cx         1 CV6      -0.084400
     12 C18        163.4860   172.1750   148.2970 cx         1 CV6      -0.084400
     13 C21        164.0430   167.4050   148.8440 ca         1 CV6       0.053100
     14 C24        164.8090   169.4750   147.2470 ca         1 CV6      -0.097000
     15 C25        164.0180   165.2120   148.4980 c5         1 CV6       0.583000
     16 N          171.7210   171.4270   151.7740 na         1 CV6      -0.095700
     17 C          172.9520   172.1890   154.6090 c3         1 CV6      -0.085600
     18 O          173.6770   174.3350   151.6080 oh         1 CV6      -0.656000
     19 C11        170.5070   171.1300   151.1850 ca         1 CV6      -0.046200
     20 C13        173.7580   171.1430   150.3010 c3         1 CV6       0.142300
     21 C14        173.0550   170.9750   148.9730 c3         1 CV6       0.165600
     22 C16        164.2880   171.1340   149.0580 cx         1 CV6      -0.198700
     23 C19        164.3290   169.7310   148.5330 ca         1 CV6      -0.059300
     24 C20        163.9310   168.6680   149.3650 ca         1 CV6      -0.064000
     25 C22        164.5200   167.1650   147.5710 ca         1 CV6       0.059100
     26 C23        164.9160   168.1770   146.7330 ca         1 CV6      -0.072000
     27 C4         171.5710   172.5880   152.5480 cd         1 CV6      -0.019300
     28 F          168.4380   169.0440   149.0990 f          1 CV6      -0.194000
     29 F2         162.9190   164.4830   148.2210 f          1 CV6      -0.080500
     30 O1         173.8340   171.6090   147.9570 oh         1 CV6      -0.658000
     31 O2         174.9640   170.3740   150.2550 oh         1 CV6      -0.648000
     32 O3         165.5530   172.7980   150.2250 o          1 CV6      -0.594100
     33 O4         164.5060   165.7970   147.3450 os         1 CV6      -0.350100
     34 O5         163.7230   166.1900   149.4310 os         1 CV6      -0.350100
     35 H1         166.4460   169.9380   149.2790 hn         1 CV6       0.167000
     36 H2         172.8590   174.8820   154.7580 hc         1 CV6       0.043367
     37 H3         171.8550   175.2140   153.3410 hc         1 CV6       0.043367
     38 H4         171.2030   174.2750   154.6930 hc         1 CV6       0.043367
     39 H5         174.4740   172.6060   152.4410 h1         1 CV6       0.018700
     40 H6         174.5900   174.0400   153.4530 h1         1 CV6       0.018700
     41 H7         169.8500   173.8810   152.9160 ha         1 CV6       0.210000
     42 H8         167.5240   172.8020   151.4030 ha         1 CV6       0.154000
     43 H9         170.8200   169.2930   150.0340 ha         1 CV6       0.134000
     44 H10        172.6300   169.6190   151.3320 h1         1 CV6       0.063200
     45 H11        173.5620   170.6580   152.3760 h1         1 CV6       0.063200
     46 H12        163.0490   172.3240   150.4620 hc         1 CV6       0.087950
     47 H13        162.1450   170.9830   149.6010 hc         1 CV6       0.087950
     48 H14        163.8990   173.1730   148.2620 hc         1 CV6       0.087950
     49 H15        163.0010   171.8340   147.3930 hc         1 CV6       0.087950
     50 H16        165.1110   170.3080   146.6270 ha         1 CV6       0.133000
     51 H17        173.6770   172.6400   155.2910 hc         1 CV6       0.043367
     52 H18        172.0450   171.9680   155.1720 hc         1 CV6       0.043367
     53 H19        173.3690   171.2490   154.2530 hc         1 CV6       0.043367
     54 H20        174.5190   174.5990   151.2190 ho         1 CV6       0.445000
     55 H21        173.9900   172.2030   150.4230 h1         1 CV6       0.064700
     56 H22        172.0650   171.4330   149.0310 h1         1 CV6       0.038200
     57 H23        172.9310   169.9060   148.7590 h1         1 CV6       0.038200
     58 H24        163.5580   168.8440   150.3650 ha         1 CV6       0.149000
     59 H25        165.2880   167.9840   145.7360 ha         1 CV6       0.147000
     60 H26        173.3310   171.5790   147.1350 ho         1 CV6       0.444000
     61 H27        175.5330   170.6500   150.9840 ho         1 CV6       0.437000
     62 C12        172.9220   170.6560   151.4990 c3         1 CV6       0.046600
     63 C1         172.6320   173.1730   153.4640 c3         1 CV6       0.014200
     64 F1         164.9190   164.3450   149.0000 f          1 CV6      -0.080500
@<TRIPOS>BOND
     1     1     7 1   
     2     1    10 1   
     3     1    35 1   
     4     2    36 1   
     5     2    37 1   
     6     2    38 1   
     7     2    63 1   
     8     3    18 1   
     9     3    39 1   
    10     3    40 1   
    11     3    63 1   
    12     4     5 1   
    13     4    27 2   
    14     4    41 1   
    15     5     6 ar  
    16     5    19 ar  
    17     6     7 ar  
    18     6    42 1   
    19     7     8 ar  
    20     8     9 ar  
    21     8    28 1   
    22     9    19 ar  
    23     9    43 1   
    24    10    22 1   
    25    10    32 2   
    26    11    12 1   
    27    11    22 1   
    28    11    46 1   
    29    11    47 1   
    30    12    22 1   
    31    12    48 1   
    32    12    49 1   
    33    13    24 ar  
    34    13    25 ar  
    35    13    34 1   
    36    14    23 ar  
    37    14    26 ar  
    38    14    50 1   
    39    15    29 1   
    40    15    33 1   
    41    15    34 1   
    42    15    64 1   
    43    16    19 1   
    44    16    27 1   
    45    16    62 1   
    46    17    51 1   
    47    17    52 1   
    48    17    53 1   
    49    17    63 1   
    50    18    54 1   
    51    20    21 1   
    52    20    31 1   
    53    20    55 1   
    54    20    62 1   
    55    21    30 1   
    56    21    56 1   
    57    21    57 1   
    58    22    23 1   
    59    23    24 ar  
    60    24    58 1   
    61    25    26 ar  
    62    25    33 1   
    63    26    59 1   
    64    27    63 1   
    65    30    60 1   
    66    31    61 1   
    67    44    62 1   
    68    45    62 1   
@<TRIPOS>SUBSTRUCTURE
     1 CV6         1 TEMP              0 ****  ****    0 ROOT
