@<TRIPOS>MOLECULE
CV6
   64    68     1     0     0
SMALL
No Charge or Current Charge


@<TRIPOS>ATOM
      1 N1         167.0390   170.8090   149.0070 ns         1 CV6      -0.135000
      2 C2         171.6780   173.3030   154.9740 c3         1 CV6      -0.085600
      3 C3         173.7140   173.4500   153.4920 c3         1 CV6       0.165600
      4 C5         170.2290   172.3650   152.5950 cc         1 CV6      -0.223200
      5 C6         169.7820   171.7780   151.3740 ca         1 CV6      -0.082800
      6 C7         168.4840   171.6680   150.8580 ca         1 CV6      -0.059000
      7 C8         168.3090   170.9830   149.6300 ca         1 CV6      -0.085000
      8 C9         169.4460   170.4280   148.9880 ca         1 CV6       0.127000
      9 C10        170.7350   170.5530   149.5420 ca         1 CV6      -0.143000
     10 C15        165.7590   171.2120   149.3580 c          1 CV6       0.642100
     11 C17        163.6500   171.7970   147.9600 cx         1 CV6      -0.084400
     12 C18        164.7330   171.4110   146.9840 cx         1 CV6      -0.084400
     13 C21        163.0110   167.6170   149.6270 ca         1 CV6       0.053100
     14 C24        164.9230   168.3280   147.7370 ca         1 CV6      -0.097000
     15 C25        162.1650   165.6650   150.2070 c5         1 CV6       0.583000
     16 N          172.0290   171.5180   151.4890 na         1 CV6      -0.095700
     17 C          173.0260   171.2430   154.5570 c3         1 CV6      -0.085600
     18 O          173.2870   174.6510   152.8300 oh         1 CV6      -0.656000
     19 C11        170.8760   171.2580   150.7500 ca         1 CV6      -0.046200
     20 C13        174.0200   172.3180   150.1050 c3         1 CV6       0.142300
     21 C14        173.2770   172.5700   148.7650 c3         1 CV6       0.165600
     22 C16        164.6970   170.7750   148.3630 cx         1 CV6      -0.198700
     23 C19        164.3110   169.3320   148.5300 ca         1 CV6      -0.059300
     24 C20        163.3410   168.9710   149.4920 ca         1 CV6      -0.064000
     25 C22        163.6020   166.6530   148.8590 ca         1 CV6       0.059100
     26 C23        164.5690   166.9710   147.8980 ca         1 CV6      -0.072000
     27 C4         171.6090   172.1780   152.6910 cd         1 CV6      -0.019300
     28 F          169.2990   169.7580   147.8220 f          1 CV6      -0.194000
     29 F2         160.9100   165.2160   149.8040 f          1 CV6      -0.080500
     30 O1         174.0000   173.5360   147.9780 oh         1 CV6      -0.658000
     31 O2         175.3840   171.9730   149.8150 oh         1 CV6      -0.648000
     32 O3         165.4780   171.8500   150.3670 o          1 CV6      -0.594100
     33 O4         163.1460   165.4060   149.1450 os         1 CV6      -0.350100
     34 O5         162.1050   167.1030   150.4990 os         1 CV6      -0.350100
     35 H1         167.0780   170.2880   148.1410 hn         1 CV6       0.167000
     36 H2         172.3120   173.5890   155.8230 hc         1 CV6       0.043367
     37 H3         171.2330   174.2200   154.5690 hc         1 CV6       0.043367
     38 H4         170.8680   172.6760   155.3660 hc         1 CV6       0.043367
     39 H5         174.4090   172.8930   152.8550 h1         1 CV6       0.018700
     40 H6         174.2720   173.7100   154.4010 h1         1 CV6       0.018700
     41 H7         169.5950   172.8270   153.3450 ha         1 CV6       0.210000
     42 H8         167.6550   172.1000   151.4090 ha         1 CV6       0.154000
     43 H9         171.5850   170.1060   149.0370 ha         1 CV6       0.134000
     44 H10        173.3510   170.2720   150.4150 h1         1 CV6       0.063200
     45 H11        174.0510   171.0200   151.8360 h1         1 CV6       0.063200
     46 H12        163.6990   172.7900   148.4010 hc         1 CV6       0.087950
     47 H13        162.6410   171.4440   147.7580 hc         1 CV6       0.087950
     48 H14        165.5050   172.1480   146.7720 hc         1 CV6       0.087950
     49 H15        164.4430   170.8040   146.1290 hc         1 CV6       0.087950
     50 H16        165.6730   168.5980   146.9960 ha         1 CV6       0.133000
     51 H17        173.6070   171.4710   155.4600 hc         1 CV6       0.043367
     52 H18        172.1900   170.5960   154.8490 hc         1 CV6       0.043367
     53 H19        173.6730   170.6670   153.8890 hc         1 CV6       0.043367
     54 H20        174.0810   175.2210   152.7320 ho         1 CV6       0.445000
     55 H21        173.9930   173.2590   150.6680 h1         1 CV6       0.064700
     56 H22        172.2650   172.9380   148.9780 h1         1 CV6       0.038200
     57 H23        173.1850   171.6240   148.2150 h1         1 CV6       0.038200
     58 H24        162.8600   169.7200   150.1150 ha         1 CV6       0.149000
     59 H25        165.0320   166.1930   147.2950 ha         1 CV6       0.147000
     60 H26        173.4640   173.7090   147.1710 ho         1 CV6       0.444000
     61 H27        175.6160   172.5180   149.0280 ho         1 CV6       0.437000
     62 C12        173.3890   171.2070   150.9870 c3         1 CV6       0.046600
     63 C1         172.5040   172.5460   153.8900 c3         1 CV6       0.014200
     64 F1         162.5260   164.9690   151.3580 f          1 CV6      -0.080500
@<TRIPOS>BOND
     1     1     7 1   
     2     1    10 1   
     3     1    35 1   
     4     2    36 1   
     5     2    37 1   
     6     2    38 1   
     7     2    63 1   
     8     3    18 1   
     9     3    39 1   
    10     3    40 1   
    11     3    63 1   
    12     4     5 1   
    13     4    27 2   
    14     4    41 1   
    15     5     6 ar  
    16     5    19 ar  
    17     6     7 ar  
    18     6    42 1   
    19     7     8 ar  
    20     8     9 ar  
    21     8    28 1   
    22     9    19 ar  
    23     9    43 1   
    24    10    22 1   
    25    10    32 2   
    26    11    12 1   
    27    11    22 1   
    28    11    46 1   
    29    11    47 1   
    30    12    22 1   
    31    12    48 1   
    32    12    49 1   
    33    13    24 ar  
    34    13    25 ar  
    35    13    34 1   
    36    14    23 ar  
    37    14    26 ar  
    38    14    50 1   
    39    15    29 1   
    40    15    33 1   
    41    15    34 1   
    42    15    64 1   
    43    16    19 1   
    44    16    27 1   
    45    16    62 1   
    46    17    51 1   
    47    17    52 1   
    48    17    53 1   
    49    17    63 1   
    50    18    54 1   
    51    20    21 1   
    52    20    31 1   
    53    20    55 1   
    54    20    62 1   
    55    21    30 1   
    56    21    56 1   
    57    21    57 1   
    58    22    23 1   
    59    23    24 ar  
    60    24    58 1   
    61    25    26 ar  
    62    25    33 1   
    63    26    59 1   
    64    27    63 1   
    65    30    60 1   
    66    31    61 1   
    67    44    62 1   
    68    45    62 1   
@<TRIPOS>SUBSTRUCTURE
     1 CV6         1 TEMP              0 ****  ****    0 ROOT
