@<TRIPOS>MOLECULE
CV7
   72    77     1     0     0
SMALL
No Charge or Current Charge


@<TRIPOS>ATOM
      1 C1          -0.3460     3.1570    -0.7800 c3         1 CV7      -0.097100
      2 C2          -0.6760     1.7340    -0.2010 c5         1 CV7      -0.017000
      3 C3          -0.0490     1.6000     1.2300 c6         1 CV7      -0.099400
      4 C4           1.5100     1.4980     1.2330 c6         1 CV7       0.179300
      5 C6           2.0560     0.3780     0.2550 c6         1 CV7      -0.030700
      6 C8           1.4380     0.4710    -1.1960 c6         1 CV7      -0.040700
      7 C10         -0.1400     0.5500    -1.0660 c5         1 CV7      -0.068700
      8 C12         -0.9740     0.6890    -2.3670 c5         1 CV7      -0.076400
      9 C13         -2.4130     0.8490    -1.7830 c5         1 CV7       0.151300
     10 C15         -2.2320     1.4300    -0.3220 c5         1 CV7       0.035000
     11 O16         -2.5980     0.3040     0.5290 os         1 CV7      -0.463000
     12 C17         -3.5160    -0.4710    -0.2530 c5         1 CV7       0.381300
     13 O19         -2.9050    -0.4880    -1.5530 os         1 CV7      -0.464000
     14 C20         -3.6590    -1.9070     0.3280 c6         1 CV7      -0.057700
     15 C21         -4.6820    -2.7450    -0.4920 c6         1 CV7      -0.067900
     16 C22         -4.8520    -4.1680     0.0970 c6         1 CV7      -0.074400
     17 C23         -3.4930    -4.9030     0.1900 c6         1 CV7      -0.075400
     18 C24         -2.4680    -4.0800     1.0080 c6         1 CV7      -0.074400
     19 C25         -2.2940    -2.6570     0.4220 c6         1 CV7      -0.067900
     20 C26         -3.1490     2.6910    -0.0820 c          1 CV7       0.564100
     21 O27         -3.7280     3.2870    -0.9870 o          1 CV7      -0.477100
     22 C28         -3.3290     3.1630     1.3940 c3         1 CV7       0.063600
     23 O29         -3.2890     4.6100     1.5600 oh         1 CV7      -0.634000
     24 C30          1.9330    -0.7400    -2.0930 c6         1 CV7      -0.072400
     25 C31          3.4620    -0.8980    -2.0900 c6         1 CV7      -0.049200
     26 C32          3.9750    -1.0050    -0.6610 c2         1 CV7      -0.045400
     27 C33          4.6450    -2.1010    -0.2350 ce         1 CV7      -0.303200
     28 C34          5.1240    -2.2750     1.1540 c          1 CV7       0.566500
     29 O35          5.7310    -3.2710     1.5180 o          1 CV7      -0.530100
     30 C36          4.8110    -1.1560     2.0710 ce         1 CV7      -0.297200
     31 C37          4.1400    -0.0470     1.6820 c2         1 CV7      -0.150200
     32 C38          3.6330     0.1890     0.2530 c6         1 CV7       0.012400
     33 C39          4.4440     1.4140    -0.2870 c3         1 CV7      -0.068100
     34 O40          2.0870     2.7860     1.0000 oh         1 CV7      -0.658000
     35 H11C         0.7020     3.2670    -1.0720 hc         1 CV7       0.048700
     36 H12C        -0.9360     3.3950    -1.6730 hc         1 CV7       0.048700
     37 H13C        -0.5620     3.9440    -0.0470 hc         1 CV7       0.048700
     38 H31C        -0.3640     2.4330     1.8700 hc         1 CV7       0.054200
     39 H32C        -0.4340     0.6940     1.7170 hc         1 CV7       0.054200
     40 H10         -0.3900    -0.4070    -0.5910 hc         1 CV7       0.063700
     41 H4           1.7810     1.1910     2.2530 h1         1 CV7       0.029700
     42 H6           1.6670    -0.5620     0.6730 hc         1 CV7       0.055700
     43 H40          1.7410     3.3810     1.6980 ho         1 CV7       0.442000
     44 H8           1.7920     1.3940    -1.6720 hc         1 CV7       0.065700
     45 H301         1.4770    -1.6720    -1.7290 hc         1 CV7       0.047200
     46 H302         1.5820    -0.6090    -3.1250 hc         1 CV7       0.047200
     47 H121        -0.6720     1.5480    -2.9740 hc         1 CV7       0.063700
     48 H122        -0.8900    -0.1930    -3.0120 hc         1 CV7       0.063700
     49 H13         -3.0970     1.4010    -2.4450 h1         1 CV7       0.087700
     50 H17         -4.4850     0.0440    -0.3050 h2         1 CV7       0.033700
     51 H20         -4.0560    -1.7980     1.3470 hc         1 CV7       0.056700
     52 H211        -5.6560    -2.2360    -0.5080 hc         1 CV7       0.048200
     53 H212        -4.3530    -2.8200    -1.5380 hc         1 CV7       0.048200
     54 H251        -1.8320    -2.7280    -0.5730 hc         1 CV7       0.048200
     55 H252        -1.5920    -2.0910     1.0490 hc         1 CV7       0.048200
     56 H221        -5.3080    -4.1030     1.0960 hc         1 CV7       0.039200
     57 H222        -5.5470    -4.7480    -0.5250 hc         1 CV7       0.039200
     58 H231        -3.6330    -5.8900     0.6520 hc         1 CV7       0.040700
     59 H232        -3.1000    -5.0840    -0.8200 hc         1 CV7       0.040700
     60 H241        -2.7990    -4.0110     2.0540 hc         1 CV7       0.039200
     61 H242        -1.5000    -4.5980     1.0210 hc         1 CV7       0.039200
     62 H281        -4.2900     2.7630     1.7410 h1         1 CV7       0.045700
     63 H282        -2.5520     2.6880     2.0050 h1         1 CV7       0.045700
     64 H29         -3.4540     4.8060     2.5110 ho         1 CV7       0.446000
     65 H311         3.7370    -1.7920    -2.6660 hc         1 CV7       0.056200
     66 H312         3.9330    -0.0520    -2.6070 hc         1 CV7       0.056200
     67 H33          4.8590    -2.9300    -0.9060 ha         1 CV7       0.198000
     68 H36          5.1630    -1.2730     3.0940 ha         1 CV7       0.198000
     69 H37          3.9630     0.7560     2.4000 ha         1 CV7       0.183000
     70 H391         4.4910     2.2340     0.4380 hc         1 CV7       0.045033
     71 H392         5.4840     1.1310    -0.4920 hc         1 CV7       0.045033
     72 H393         4.0280     1.8200    -1.2140 hc         1 CV7       0.045033
@<TRIPOS>BOND
     1     1     2 1   
     2     1    35 1   
     3     1    36 1   
     4     1    37 1   
     5     2     3 1   
     6     2     7 1   
     7     2    10 1   
     8     3     4 1   
     9     3    38 1   
    10     3    39 1   
    11     4     5 1   
    12     4    34 1   
    13     4    41 1   
    14     5     6 1   
    15     5    32 1   
    16     5    42 1   
    17     6     7 1   
    18     6    24 1   
    19     6    44 1   
    20     7     8 1   
    21     7    40 1   
    22     8     9 1   
    23     8    47 1   
    24     8    48 1   
    25     9    10 1   
    26     9    13 1   
    27     9    49 1   
    28    10    11 1   
    29    10    20 1   
    30    11    12 1   
    31    12    13 1   
    32    12    14 1   
    33    12    50 1   
    34    14    15 1   
    35    14    19 1   
    36    14    51 1   
    37    15    16 1   
    38    15    52 1   
    39    15    53 1   
    40    16    17 1   
    41    16    56 1   
    42    16    57 1   
    43    17    18 1   
    44    17    58 1   
    45    17    59 1   
    46    18    19 1   
    47    18    60 1   
    48    18    61 1   
    49    19    54 1   
    50    19    55 1   
    51    20    21 2   
    52    20    22 1   
    53    22    23 1   
    54    22    62 1   
    55    22    63 1   
    56    23    64 1   
    57    24    25 1   
    58    24    45 1   
    59    24    46 1   
    60    25    26 1   
    61    25    65 1   
    62    25    66 1   
    63    26    27 2   
    64    26    32 1   
    65    27    28 1   
    66    27    67 1   
    67    28    29 2   
    68    28    30 1   
    69    30    31 2   
    70    30    68 1   
    71    31    32 1   
    72    31    69 1   
    73    32    33 1   
    74    33    70 1   
    75    33    71 1   
    76    33    72 1   
    77    34    43 1   
@<TRIPOS>SUBSTRUCTURE
     1 CV7         1 TEMP              0 ****  ****    0 ROOT
