@<TRIPOS>MOLECULE
CV7
   72    77     1     0     0
SMALL
abcg2


@<TRIPOS>ATOM
      1 C1          -0.2410     3.0300    -0.7600 c3         1 CV7      -0.097100
      2 C2          -0.5690     1.6430    -0.1890 c5         1 CV7      -0.017000
      3 C3           0.0040     1.4610     1.2140 c6         1 CV7      -0.099400
      4 C4           1.5380     1.3870     1.2350 c6         1 CV7       0.179300
      5 C6           2.0870     0.3710     0.2220 c6         1 CV7      -0.030700
      6 C8           1.4890     0.4970    -1.1930 c6         1 CV7      -0.040700
      7 C10         -0.0270     0.5060    -1.0690 c5         1 CV7      -0.068700
      8 C12         -0.8820     0.5890    -2.3260 c5         1 CV7      -0.076400
      9 C13         -2.2860     0.8280    -1.7700 c5         1 CV7       0.151300
     10 C15         -2.1030     1.4030    -0.3280 c5         1 CV7       0.035000
     11 O16         -2.5210     0.3410     0.5000 os         1 CV7      -0.463000
     12 C17         -3.4500    -0.4030    -0.2480 c5         1 CV7       0.381300
     13 O19         -2.9420    -0.4090    -1.5500 os         1 CV7      -0.464000
     14 C20         -3.6130    -1.8000     0.3110 c6         1 CV7      -0.057700
     15 C21         -4.6570    -2.5800    -0.4900 c6         1 CV7      -0.067900
     16 C22         -4.9110    -3.9520     0.1250 c6         1 CV7      -0.074400
     17 C23         -3.6160    -4.7480     0.2500 c6         1 CV7      -0.075400
     18 C24         -2.5620    -3.9660     1.0260 c6         1 CV7      -0.074400
     19 C25         -2.3090    -2.5920     0.4110 c6         1 CV7      -0.067900
     20 C26         -2.9580     2.6310    -0.0280 c          1 CV7       0.564100
     21 O27         -3.2930     3.4090    -0.8860 o          1 CV7      -0.477100
     22 C28         -3.3550     2.8230     1.4170 c3         1 CV7       0.063600
     23 O29         -3.9530     4.0760     1.5630 oh         1 CV7      -0.634000
     24 C30          1.9310    -0.6750    -2.0680 c6         1 CV7      -0.072400
     25 C31          3.4440    -0.8870    -2.0640 c6         1 CV7      -0.049200
     26 C32          3.9480    -0.9550    -0.6600 c2         1 CV7      -0.045400
     27 C33          4.5670    -2.0450    -0.1850 ce         1 CV7      -0.303200
     28 C34          5.0220    -2.1540     1.1980 c          1 CV7       0.566500
     29 O35          5.5710    -3.1630     1.6240 o          1 CV7      -0.530100
     30 C36          4.7910    -0.9840     2.0490 ce         1 CV7      -0.297200
     31 C37          4.1700     0.1010     1.5840 c2         1 CV7      -0.150200
     32 C38          3.6550     0.2530     0.1910 c6         1 CV7       0.012400
     33 C39          4.3850     1.4650    -0.4330 c3         1 CV7      -0.068100
     34 O40          2.1420     2.6430     1.0240 oh         1 CV7      -0.658000
     35 H11C         0.8180     3.1390    -0.9730 hc         1 CV7       0.048700
     36 H12C        -0.7810     3.2490    -1.6810 hc         1 CV7       0.048700
     37 H13C        -0.4960     3.8130    -0.0430 hc         1 CV7       0.048700
     38 H31C        -0.3050     2.2650     1.8920 hc         1 CV7       0.054200
     39 H32C        -0.3760     0.5320     1.6470 hc         1 CV7       0.054200
     40 H10         -0.2920    -0.4360    -0.5700 hc         1 CV7       0.063700
     41 H4           1.8020     1.0180     2.2360 h1         1 CV7       0.029700
     42 H6           1.7470    -0.6020     0.6070 hc         1 CV7       0.055700
     43 H40          1.7530     3.2680     1.6450 ho         1 CV7       0.442000
     44 H8           1.8270     1.4270    -1.6630 hc         1 CV7       0.065700
     45 H301         1.4430    -1.5900    -1.7110 hc         1 CV7       0.047200
     46 H302         1.5940    -0.5240    -3.0950 hc         1 CV7       0.047200
     47 H121        -0.5780     1.4230    -2.9620 hc         1 CV7       0.063700
     48 H122        -0.8560    -0.3110    -2.9410 hc         1 CV7       0.063700
     49 H13         -2.8930     1.4710    -2.4120 h1         1 CV7       0.087700
     50 H17         -4.4300     0.1100    -0.2320 h2         1 CV7       0.033700
     51 H20         -4.0100    -1.6660     1.3270 hc         1 CV7       0.056700
     52 H211        -5.5910    -2.0120    -0.5440 hc         1 CV7       0.048200
     53 H212        -4.3080    -2.7090    -1.5200 hc         1 CV7       0.048200
     54 H251        -1.8750    -2.7130    -0.5870 hc         1 CV7       0.048200
     55 H252        -1.5740    -2.0490     1.0080 hc         1 CV7       0.048200
     56 H221        -5.3590    -3.8280     1.1180 hc         1 CV7       0.039200
     57 H222        -5.6380    -4.5010    -0.4780 hc         1 CV7       0.039200
     58 H231        -3.8090    -5.7090     0.7340 hc         1 CV7       0.040700
     59 H232        -3.2340    -4.9760    -0.7510 hc         1 CV7       0.040700
     60 H241        -2.8970    -3.8400     2.0620 hc         1 CV7       0.039200
     61 H242        -1.6280    -4.5310     1.0710 hc         1 CV7       0.039200
     62 H281        -4.0280     2.0010     1.6950 h1         1 CV7       0.045700
     63 H282        -2.4600     2.6990     2.0440 h1         1 CV7       0.045700
     64 H29         -4.2690     4.1450     2.4680 ho         1 CV7       0.446000
     65 H311         3.7010    -1.8000    -2.6040 hc         1 CV7       0.056200
     66 H312         3.9280    -0.0600    -2.5930 hc         1 CV7       0.056200
     67 H33          4.7440    -2.8970    -0.8320 ha         1 CV7       0.198000
     68 H36          5.1520    -1.0240     3.0700 ha         1 CV7       0.198000
     69 H37          4.0460     0.9580     2.2370 ha         1 CV7       0.183000
     70 H391         4.4020     2.3100     0.2490 hc         1 CV7       0.045033
     71 H392         5.4160     1.1920    -0.6620 hc         1 CV7       0.045033
     72 H393         3.9140     1.7940    -1.3560 hc         1 CV7       0.045033
@<TRIPOS>BOND
     1     1     2 1   
     2     1    35 1   
     3     1    36 1   
     4     1    37 1   
     5     2     3 1   
     6     2     7 1   
     7     2    10 1   
     8     3     4 1   
     9     3    38 1   
    10     3    39 1   
    11     4     5 1   
    12     4    34 1   
    13     4    41 1   
    14     5     6 1   
    15     5    32 1   
    16     5    42 1   
    17     6     7 1   
    18     6    24 1   
    19     6    44 1   
    20     7     8 1   
    21     7    40 1   
    22     8     9 1   
    23     8    47 1   
    24     8    48 1   
    25     9    10 1   
    26     9    13 1   
    27     9    49 1   
    28    10    11 1   
    29    10    20 1   
    30    11    12 1   
    31    12    13 1   
    32    12    14 1   
    33    12    50 1   
    34    14    15 1   
    35    14    19 1   
    36    14    51 1   
    37    15    16 1   
    38    15    52 1   
    39    15    53 1   
    40    16    17 1   
    41    16    56 1   
    42    16    57 1   
    43    17    18 1   
    44    17    58 1   
    45    17    59 1   
    46    18    19 1   
    47    18    60 1   
    48    18    61 1   
    49    19    54 1   
    50    19    55 1   
    51    20    21 2   
    52    20    22 1   
    53    22    23 1   
    54    22    62 1   
    55    22    63 1   
    56    23    64 1   
    57    24    25 1   
    58    24    45 1   
    59    24    46 1   
    60    25    26 1   
    61    25    65 1   
    62    25    66 1   
    63    26    27 2   
    64    26    32 1   
    65    27    28 1   
    66    27    67 1   
    67    28    29 2   
    68    28    30 1   
    69    30    31 2   
    70    30    68 1   
    71    31    32 1   
    72    31    69 1   
    73    32    33 1   
    74    33    70 1   
    75    33    71 1   
    76    33    72 1   
    77    34    43 1   
@<TRIPOS>SUBSTRUCTURE
     1 CV7         1 TEMP              0 ****  ****    0 ROOT
