@<TRIPOS>MOLECULE
CV8
   58    60     1     0     0
SMALL
bcc


@<TRIPOS>ATOM
      1 C10          7.0570     1.5760     0.9400 c5         1 CV8      -0.093900
      2 C13          5.5140     2.0840    -0.8350 c5         1 CV8      -0.093900
      3 C15          5.5520    -4.1070    -0.1760 c3         1 CV8       0.121700
      4 C17          1.8870    -2.0610    -0.1500 ca         1 CV8      -0.085000
      5 C20         -7.1420    -2.5570     0.3710 c3         1 CV8      -0.088100
      6 C21         -8.4800     1.9850     0.3010 c3         1 CV8      -0.088100
      7 C01         -7.2630     1.1070     0.4980 c6         1 CV8       0.132600
      8 C02         -6.1580     1.4540    -0.4890 c6         1 CV8       0.064000
      9 N01         -5.0610     0.5110    -0.3660 n          1 CV8      -0.484800
     10 C03         -3.7870     0.9400    -0.2730 c          1 CV8       0.671100
     11 C04         -2.7180    -0.1410    -0.2110 c3         1 CV8       0.064400
     12 O01         -1.4790     0.5120    -0.1020 os         1 CV8      -0.161300
     13 N02         -0.4740    -0.4150    -0.1170 n2         1 CV8      -0.448200
     14 C06          1.8910    -0.6800    -0.0170 ca         1 CV8      -0.146900
     15 C07          3.1140    -0.0110     0.1120 ca         1 CV8      -0.170000
     16 C08          4.3130    -0.7020     0.1130 ca         1 CV8       0.116100
     17 O02          5.5310    -0.1490     0.2470 os         1 CV8      -0.302900
     18 C09          5.6560     1.2500     0.4440 c5         1 CV8       0.142100
     19 C11          7.1240     3.0850     0.7370 c5         1 CV8      -0.079900
     20 C12          6.4070     3.3240    -0.6060 c5         1 CV8      -0.079900
     21 C14          4.2980    -2.1060    -0.0260 ca         1 CV8       0.126100
     22 O03          5.5000    -2.7020    -0.0230 os         1 CV8      -0.294900
     23 C16          3.0830    -2.7650    -0.1550 ca         1 CV8      -0.201000
     24 O04         -3.4780     2.1200    -0.2450 o          1 CV8      -0.576100
     25 C18         -5.4750    -0.8760    -0.4580 c6         1 CV8       0.064000
     26 C19         -6.6010    -1.1530     0.5340 c6         1 CV8       0.132600
     27 O05         -7.6620    -0.2410     0.3410 os         1 CV8      -0.407600
     28 H09          7.2270     1.2660     1.9720 hc         1 CV8       0.057200
     29 H10          7.7950     1.0730     0.3080 hc         1 CV8       0.057200
     30 H16          5.8840     1.4970    -1.6790 hc         1 CV8       0.057200
     31 H15          4.4810     2.3520    -1.0590 hc         1 CV8       0.057200
     32 H17          5.1110    -4.4310    -1.1220 h1         1 CV8       0.041033
     33 H18          6.6050    -4.3780    -0.1680 h1         1 CV8       0.041033
     34 H19          5.0490    -4.6270     0.6440 h1         1 CV8       0.041033
     35 H21          0.9560    -2.6010    -0.2560 ha         1 CV8       0.146000
     36 H26         -7.9460    -2.7500     1.0810 hc         1 CV8       0.046700
     37 H24         -7.5250    -2.7180    -0.6380 hc         1 CV8       0.046700
     38 H28         -9.2640     1.7320     1.0150 hc         1 CV8       0.046700
     39 H29         -8.2180     3.0320     0.4510 hc         1 CV8       0.046700
     40 H30         -8.8860     1.8790    -0.7070 hc         1 CV8       0.046700
     41 H27         -6.8680     1.2560     1.5160 h1         1 CV8       0.041700
     42 H02         -6.5520     1.4240    -1.5130 h1         1 CV8       0.061450
     43 H03         -5.7940     2.4610    -0.3010 h1         1 CV8       0.061450
     44 H04         -2.8860    -0.8040     0.6460 h1         1 CV8       0.053700
     45 H05         -2.7550    -0.7590    -1.1160 h1         1 CV8       0.053700
     46 H07          3.1030     1.0670     0.2080 ha         1 CV8       0.140000
     47 H08          4.9330     1.5820     1.2010 h1         1 CV8       0.044700
     48 H11          6.5890     3.5880     1.5460 hc         1 CV8       0.045200
     49 H12          8.1450     3.4660     0.7440 hc         1 CV8       0.045200
     50 H13          7.1320     3.4190    -1.4150 hc         1 CV8       0.045200
     51 H14          5.8290     4.2480    -0.5920 hc         1 CV8       0.045200
     52 H20          3.0510    -3.8410    -0.2590 ha         1 CV8       0.138000
     53 H23         -5.8200    -1.0900    -1.4760 h1         1 CV8       0.061450
     54 H22         -4.6500    -1.5510    -0.2460 h1         1 CV8       0.061450
     55 H01         -6.1930    -1.0320     1.5500 h1         1 CV8       0.041700
     56 C05          0.6720     0.1220    -0.0130 ce         1 CV8       0.439800
     57 H25         -6.3540    -3.2880     0.5550 hc         1 CV8       0.046700
     58 H06          0.7870     1.2020     0.0790 h4         1 CV8       0.009800
@<TRIPOS>BOND
     1     1    18 1   
     2     1    19 1   
     3     1    28 1   
     4     1    29 1   
     5     2    18 1   
     6     2    20 1   
     7     2    30 1   
     8     2    31 1   
     9     3    22 1   
    10     3    32 1   
    11     3    33 1   
    12     3    34 1   
    13     4    14 ar  
    14     4    23 ar  
    15     4    35 1   
    16     5    26 1   
    17     5    36 1   
    18     5    37 1   
    19     5    57 1   
    20     6     7 1   
    21     6    38 1   
    22     6    39 1   
    23     6    40 1   
    24     7     8 1   
    25     7    27 1   
    26     7    41 1   
    27     8     9 1   
    28     8    42 1   
    29     8    43 1   
    30     9    10 1   
    31     9    25 1   
    32    10    11 1   
    33    10    24 2   
    34    11    12 1   
    35    11    44 1   
    36    11    45 1   
    37    12    13 1   
    38    13    56 2   
    39    14    15 ar  
    40    14    56 1   
    41    15    16 ar  
    42    15    46 1   
    43    16    17 1   
    44    16    21 ar  
    45    17    18 1   
    46    18    47 1   
    47    19    20 1   
    48    19    48 1   
    49    19    49 1   
    50    20    50 1   
    51    20    51 1   
    52    21    22 1   
    53    21    23 ar  
    54    23    52 1   
    55    25    26 1   
    56    25    53 1   
    57    25    54 1   
    58    26    27 1   
    59    26    55 1   
    60    56    58 1   
@<TRIPOS>SUBSTRUCTURE
     1 CV8         1 TEMP              0 ****  ****    0 ROOT
