@<TRIPOS>MOLECULE
CV8
   58    60     1     0     0
SMALL
No Charge or Current Charge


@<TRIPOS>ATOM
      1 C10          7.1800     2.0340     0.7350 c5         1 CV8      -0.093900
      2 C13          6.1580     0.9120    -1.1200 c5         1 CV8      -0.093900
      3 C15          5.7110    -3.7390    -0.1030 c3         1 CV8       0.144900
      4 C17          1.9740    -1.6210     0.2430 ca         1 CV8      -0.067000
      5 C20         -7.1660    -2.3740    -1.4150 c3         1 CV8      -0.088100
      6 C21         -9.1000     1.5920     0.4380 c3         1 CV8      -0.088100
      7 C01         -7.8900     0.6470     0.6260 c6         1 CV8       0.155800
      8 C02         -6.5350     1.4060     0.6070 c6         1 CV8       0.064000
      9 N01         -5.3220     0.5360     0.4620 n          1 CV8      -0.417800
     10 C03         -4.0350     1.0960     0.6630 c          1 CV8       0.604100
     11 C04         -2.7980     0.1790     0.4570 c3         1 CV8       0.087600
     12 O01         -1.5530     0.8430     0.7780 os         1 CV8      -0.283000
     13 N02         -0.4690    -0.0350     0.5740 n2         1 CV8      -0.349700
     14 C06          1.9660    -0.2820     0.6890 ca         1 CV8      -0.146900
     15 C07          3.1920     0.3400     1.0030 ca         1 CV8      -0.152000
     16 C08          4.4110    -0.3560     0.8630 ca         1 CV8       0.116100
     17 O02          5.6110     0.2540     1.1890 os         1 CV8      -0.326100
     18 C09          5.8340     1.4000     0.3240 c5         1 CV8       0.165300
     19 C11          7.4130     2.9540    -0.4870 c5         1 CV8      -0.079900
     20 C12          7.1200     2.0060    -1.6890 c5         1 CV8      -0.079900
     21 C14          4.4090    -1.7060     0.4400 ca         1 CV8       0.126100
     22 O03          5.6190    -2.3730     0.3370 os         1 CV8      -0.318100
     23 C16          3.1820    -2.3300     0.1240 ca         1 CV8      -0.183000
     24 O04         -3.9210     2.2610     1.0350 o          1 CV8      -0.576100
     25 C18         -5.5080    -0.7020    -0.3670 c6         1 CV8       0.064000
     26 C19         -6.9270    -1.3330    -0.2970 c6         1 CV8       0.155800
     27 O05         -7.9380    -0.3220    -0.4340 os         1 CV8      -0.454000
     28 H09          7.1080     2.5960     1.6730 hc         1 CV8       0.057200
     29 H10          7.9760     1.2880     0.8470 hc         1 CV8       0.057200
     30 H16          6.6540    -0.0670    -1.1100 hc         1 CV8       0.057200
     31 H15          5.2520     0.8070    -1.7260 hc         1 CV8       0.057200
     32 H17          5.3130    -3.8490    -1.1200 h1         1 CV8       0.041033
     33 H18          6.7590    -4.0650    -0.1110 h1         1 CV8       0.041033
     34 H19          5.1540    -4.4040     0.5690 h1         1 CV8       0.041033
     35 H21          1.0420    -2.1260    -0.0060 ha         1 CV8       0.128000
     36 H26         -8.1690    -2.8110    -1.3360 hc         1 CV8       0.046700
     37 H24         -7.0720    -1.9220    -2.4090 hc         1 CV8       0.046700
     38 H28        -10.0430     1.0330     0.4640 hc         1 CV8       0.046700
     39 H29         -9.1380     2.3440     1.2350 hc         1 CV8       0.046700
     40 H30         -9.0480     2.1210    -0.5210 hc         1 CV8       0.046700
     41 H27         -8.0010     0.1240     1.5880 h1         1 CV8       0.041700
     42 H02         -6.5430     2.1230    -0.2260 h1         1 CV8       0.061450
     43 H03         -6.4550     1.9920     1.5330 h1         1 CV8       0.061450
     44 H04         -2.9360    -0.7060     1.0910 h1         1 CV8       0.053700
     45 H05         -2.7980    -0.1490    -0.5900 h1         1 CV8       0.053700
     46 H07          3.1930     1.3640     1.3700 ha         1 CV8       0.122000
     47 H08          5.0100     2.1240     0.3670 h1         1 CV8       0.044700
     48 H11          6.7240     3.8070    -0.4770 hc         1 CV8       0.045200
     49 H12          8.4300     3.3620    -0.5160 hc         1 CV8       0.045200
     50 H13          8.0420     1.5510    -2.0680 hc         1 CV8       0.045200
     51 H14          6.6710     2.5530    -2.5260 hc         1 CV8       0.045200
     52 H20          3.1440    -3.3610    -0.2140 ha         1 CV8       0.120000
     53 H23         -5.2840    -0.4500    -1.4140 h1         1 CV8       0.061450
     54 H22         -4.7870    -1.4710    -0.0590 h1         1 CV8       0.061450
     55 H01         -7.0550    -1.8290     0.6770 h1         1 CV8       0.041700
     56 C05          0.6890     0.4890     0.8420 ce         1 CV8       0.439800
     57 H25         -6.4420    -3.1940    -1.3490 hc         1 CV8       0.046700
     58 H06          0.7790     1.5200     1.1920 h4         1 CV8       0.009800
@<TRIPOS>BOND
     1     1    18 1   
     2     1    19 1   
     3     1    28 1   
     4     1    29 1   
     5     2    18 1   
     6     2    20 1   
     7     2    30 1   
     8     2    31 1   
     9     3    22 1   
    10     3    32 1   
    11     3    33 1   
    12     3    34 1   
    13     4    14 ar  
    14     4    23 ar  
    15     4    35 1   
    16     5    26 1   
    17     5    36 1   
    18     5    37 1   
    19     5    57 1   
    20     6     7 1   
    21     6    38 1   
    22     6    39 1   
    23     6    40 1   
    24     7     8 1   
    25     7    27 1   
    26     7    41 1   
    27     8     9 1   
    28     8    42 1   
    29     8    43 1   
    30     9    10 1   
    31     9    25 1   
    32    10    11 1   
    33    10    24 2   
    34    11    12 1   
    35    11    44 1   
    36    11    45 1   
    37    12    13 1   
    38    13    56 2   
    39    14    15 ar  
    40    14    56 1   
    41    15    16 ar  
    42    15    46 1   
    43    16    17 1   
    44    16    21 ar  
    45    17    18 1   
    46    18    47 1   
    47    19    20 1   
    48    19    48 1   
    49    19    49 1   
    50    20    50 1   
    51    20    51 1   
    52    21    22 1   
    53    21    23 ar  
    54    23    52 1   
    55    25    26 1   
    56    25    53 1   
    57    25    54 1   
    58    26    27 1   
    59    26    55 1   
    60    56    58 1   
@<TRIPOS>SUBSTRUCTURE
     1 CV8         1 TEMP              0 ****  ****    0 ROOT
