@<TRIPOS>MOLECULE
CVA
   82    86     1     0     0
SMALL
No Charge or Current Charge


@<TRIPOS>ATOM
      1 O4          -6.1240    -2.8440     0.4110 o          1 CVA      -0.533000
      2 C26         -5.5580    -1.8010     0.7200 c          1 CVA       0.559000
      3 N3          -4.1350    -1.6920     0.8030 n          1 CVA      -0.180800
      4 C19         -3.2830    -2.7970     0.2880 c3         1 CVA       0.136700
      5 C25         -2.9250    -2.5220    -1.1960 c3         1 CVA      -0.080900
      6 C24         -2.0420    -3.5780    -1.9040 c3         1 CVA      -0.068400
      7 C23         -0.5700    -3.5690    -1.4360 c3         1 CVA      -0.071400
      8 C22         -0.2610    -4.3920    -0.1630 c3         1 CVA      -0.071400
      9 C21         -1.3330    -4.3870     0.9520 c3         1 CVA      -0.068400
     10 C20         -2.0460    -3.0380     1.2010 c3         1 CVA      -0.080900
     11 N2          -3.5690    -0.5150     1.2820 n2         1 CVA      -0.451300
     12 C27         -6.3500    -0.5190     1.0850 c6         1 CVA      -0.141700
     13 C32         -5.5660     0.7360     0.5770 c6         1 CVA      -0.128000
     14 C31         -5.6580     0.8670    -0.9740 c6         1 CVA      -0.038200
     15 C30         -7.0340     0.5370    -1.5340 c2         1 CVA      -0.224200
     16 C29         -8.0010    -0.0660    -0.8250 c2         1 CVA      -0.210200
     17 C28         -7.8370    -0.4820     0.6280 c6         1 CVA      -0.028200
     18 C18         -4.0820     0.6430     0.9910 ce         1 CVA       0.401900
     19 C4          -3.1700     1.8140     0.7570 ca         1 CVA      -0.159900
     20 C3          -3.6260     3.1390     0.9090 ca         1 CVA      -0.049000
     21 C2          -2.7520     4.2210     0.7170 ca         1 CVA      -0.211000
     22 C5          -1.8120     1.5990     0.4340 ca         1 CVA      -0.032000
     23 C6          -0.9110     2.6710     0.2240 cp         1 CVA      -0.085000
     24 C1          -1.4030     3.9950     0.3740 ca         1 CVA       0.170100
     25 O           -0.5050     5.0340     0.2090 os         1 CVA      -0.330100
     26 C           -0.8860     6.4130     0.3500 c3         1 CVA       0.145900
     27 C7           0.5100     2.3710    -0.1400 cp         1 CVA       0.000000
     28 C12          1.1540     3.0220    -1.2180 ca         1 CVA      -0.104000
     29 C11          2.4810     2.7160    -1.5660 ca         1 CVA      -0.074000
     30 C10          3.2120     1.7410    -0.8500 ca         1 CVA      -0.148600
     31 C9           2.5710     1.0790     0.2250 ca         1 CVA      -0.074000
     32 C8           1.2430     1.3900     0.5670 ca         1 CVA      -0.104000
     33 C13          4.6410     1.4370    -1.2550 c          1 CVA       0.616700
     34 O1           5.1940     2.0090    -2.1850 o          1 CVA      -0.611100
     35 N            5.3040     0.4780    -0.5230 ns         1 CVA      -0.496900
     36 C14          6.6990     0.0450    -0.7670 c3         1 CVA       0.019000
     37 C15          7.1470    -1.0500     0.2290 c          1 CVA       0.589100
     38 O2           6.4180    -1.4910     1.1100 o          1 CVA      -0.619100
     39 N1           8.4380    -1.4960     0.0590 ns         1 CVA      -0.496900
     40 C16          9.0610    -2.5730     0.8440 c3         1 CVA       0.098000
     41 C17          8.5760    -3.9870     0.4370 c3         1 CVA       0.139600
     42 O3           8.8880    -4.2560    -0.9410 oh         1 CVA      -0.669000
     43 H1          -3.8720    -3.7230     0.3170 h1         1 CVA       0.077700
     44 H2          -3.8630    -2.4370    -1.7580 hc         1 CVA       0.048700
     45 H3          -2.4760    -4.5790    -1.7920 hc         1 CVA       0.038950
     46 H4           0.0590    -3.9560    -2.2470 hc         1 CVA       0.036950
     47 H5          -0.2490    -2.5310    -1.2810 hc         1 CVA       0.036950
     48 H6          -0.0800    -5.4340    -0.4530 hc         1 CVA       0.036950
     49 H7           0.6850    -4.0260     0.2550 hc         1 CVA       0.036950
     50 H8          -2.0840    -5.1570     0.7350 hc         1 CVA       0.038950
     51 H9          -0.8460    -4.7030     1.8840 hc         1 CVA       0.038950
     52 H10         -1.3320    -2.2100     1.1140 hc         1 CVA       0.048700
     53 H11         -2.3940    -3.0390     2.2410 hc         1 CVA       0.048700
     54 H12         -6.3020    -0.4710     2.1810 hc         1 CVA       0.077700
     55 H13         -6.0260     1.6210     1.0340 hc         1 CVA       0.071700
     56 H14         -5.3770     1.8870    -1.2710 hc         1 CVA       0.057200
     57 H15         -4.9240     0.2010    -1.4510 hc         1 CVA       0.057200
     58 H16         -7.2060     0.8170    -2.5750 ha         1 CVA       0.176000
     59 H17         -8.9700    -0.2810    -1.2800 ha         1 CVA       0.177000
     60 H18         -8.3140    -1.4570     0.7980 hc         1 CVA       0.062700
     61 H19         -8.3900     0.2320     1.2550 hc         1 CVA       0.062700
     62 H20         -4.6560     3.3470     1.1890 ha         1 CVA       0.113000
     63 H21         -3.1400     5.2270     0.8470 ha         1 CVA       0.120000
     64 H22         -1.4420     0.5830     0.3130 ha         1 CVA       0.139000
     65 H23         -1.6660     6.6790    -0.3750 h1         1 CVA       0.043700
     66 H24         -1.2600     6.6130     1.3620 h1         1 CVA       0.043700
     67 H25         -0.0210     7.0650     0.1730 h1         1 CVA       0.043700
     68 H26          0.6140     3.7660    -1.7980 ha         1 CVA       0.121000
     69 H27          2.9390     3.2410    -2.4020 ha         1 CVA       0.126000
     70 H28          3.0840     0.3190     0.8090 ha         1 CVA       0.126000
     71 H29          0.7770     0.8680     1.4000 ha         1 CVA       0.121000
     72 H30          4.7960     0.0390     0.2350 hn         1 CVA       0.345500
     73 H31          6.7880    -0.3550    -1.7850 h1         1 CVA       0.067200
     74 H32          7.3740     0.9040    -0.6640 h1         1 CVA       0.067200
     75 H33          8.9660    -1.0930    -0.7070 hn         1 CVA       0.329500
     76 H34         10.1500    -2.5170     0.7200 h1         1 CVA       0.066700
     77 H35          8.8410    -2.4120     1.9070 h1         1 CVA       0.066700
     78 H36          9.0610    -4.7270     1.0870 h1         1 CVA       0.031200
     79 H37          7.4930    -4.0590     0.6040 h1         1 CVA       0.031200
     80 H38          8.5470    -5.1570    -1.1430 ho         1 CVA       0.449000
     81 H39         -2.4380    -1.5420    -1.2730 hc         1 CVA       0.048700
     82 H40         -2.0550    -3.3550    -2.9780 hc         1 CVA       0.038950
@<TRIPOS>BOND
     1     1     2 2   
     2     2     3 1   
     3     2    12 1   
     4     3     4 1   
     5     3    11 1   
     6     4     5 1   
     7     4    10 1   
     8     4    43 1   
     9     5     6 1   
    10     5    44 1   
    11     5    81 1   
    12     6     7 1   
    13     6    45 1   
    14     6    82 1   
    15     7     8 1   
    16     7    46 1   
    17     7    47 1   
    18     8     9 1   
    19     8    48 1   
    20     8    49 1   
    21     9    10 1   
    22     9    50 1   
    23     9    51 1   
    24    10    52 1   
    25    10    53 1   
    26    11    18 2   
    27    12    13 1   
    28    12    17 1   
    29    12    54 1   
    30    13    14 1   
    31    13    18 1   
    32    13    55 1   
    33    14    15 1   
    34    14    56 1   
    35    14    57 1   
    36    15    16 2   
    37    15    58 1   
    38    16    17 1   
    39    16    59 1   
    40    17    60 1   
    41    17    61 1   
    42    18    19 1   
    43    19    20 ar  
    44    19    22 ar  
    45    20    21 ar  
    46    20    62 1   
    47    21    24 ar  
    48    21    63 1   
    49    22    23 ar  
    50    22    64 1   
    51    23    24 ar  
    52    23    27 1   
    53    24    25 1   
    54    25    26 1   
    55    26    65 1   
    56    26    66 1   
    57    26    67 1   
    58    27    28 ar  
    59    27    32 ar  
    60    28    29 ar  
    61    28    68 1   
    62    29    30 ar  
    63    29    69 1   
    64    30    31 ar  
    65    30    33 1   
    66    31    32 ar  
    67    31    70 1   
    68    32    71 1   
    69    33    34 2   
    70    33    35 1   
    71    35    36 1   
    72    35    72 1   
    73    36    37 1   
    74    36    73 1   
    75    36    74 1   
    76    37    38 2   
    77    37    39 1   
    78    39    40 1   
    79    39    75 1   
    80    40    41 1   
    81    40    76 1   
    82    40    77 1   
    83    41    42 1   
    84    41    78 1   
    85    41    79 1   
    86    42    80 1   
@<TRIPOS>SUBSTRUCTURE
     1 CVA         1 TEMP              0 ****  ****    0 ROOT
