@<TRIPOS>MOLECULE
CVA
   82    86     1     0     0
SMALL
abcg2


@<TRIPOS>ATOM
      1 O4          -6.1170    -2.6510     0.8240 o          1 CVA      -0.533000
      2 C26         -5.4690    -1.6190     0.8010 c          1 CVA       0.559000
      3 N3          -4.1770    -1.5790     0.3660 n          1 CVA      -0.180800
      4 C19         -3.4370    -2.7910     0.0000 c3         1 CVA       0.136700
      5 C25         -3.0780    -2.7270    -1.4820 c3         1 CVA      -0.080900
      6 C24         -2.2470    -3.8920    -2.0170 c3         1 CVA      -0.068400
      7 C23         -0.8030    -3.8940    -1.5120 c3         1 CVA      -0.071400
      8 C22         -0.5810    -4.6100    -0.1790 c3         1 CVA      -0.071400
      9 C21         -1.6860    -4.4230     0.8610 c3         1 CVA      -0.068400
     10 C20         -2.2640    -3.0100     0.9590 c3         1 CVA      -0.080900
     11 N2          -3.4080    -0.4570     0.3530 n2         1 CVA      -0.451300
     12 C27         -5.9880    -0.2930     1.3100 c6         1 CVA      -0.141700
     13 C32         -5.4450     0.8310     0.4330 c6         1 CVA      -0.128000
     14 C31         -6.0250     0.7710    -0.9900 c6         1 CVA      -0.038200
     15 C30         -7.4910     0.4680    -0.9880 c2         1 CVA      -0.224200
     16 C29         -8.1500     0.0220     0.0770 c2         1 CVA      -0.210200
     17 C28         -7.5050    -0.2410     1.4030 c6         1 CVA      -0.028200
     18 C18         -3.9540     0.6970     0.3810 ce         1 CVA       0.401900
     19 C4          -3.0630     1.8650     0.2940 ca         1 CVA      -0.159900
     20 C3          -3.5420     3.1680     0.3570 ca         1 CVA      -0.049000
     21 C2          -2.6860     4.2570     0.2640 ca         1 CVA      -0.211000
     22 C5          -1.6850     1.6900     0.1230 ca         1 CVA      -0.032000
     23 C6          -0.8090     2.7540     0.0170 cp         1 CVA      -0.085000
     24 C1          -1.3190     4.0650     0.0990 ca         1 CVA       0.170100
     25 O           -0.4250     5.0600     0.0310 os         1 CVA      -0.330100
     26 C           -0.8830     6.3970     0.1010 c3         1 CVA       0.145900
     27 C7           0.6350     2.4870    -0.1610 cp         1 CVA       0.000000
     28 C12          1.3680     3.0580    -1.2020 ca         1 CVA      -0.104000
     29 C11          2.7040     2.7470    -1.3780 ca         1 CVA      -0.074000
     30 C10          3.3450     1.8500    -0.5260 ca         1 CVA      -0.148600
     31 C9           2.6210     1.2880     0.5230 ca         1 CVA      -0.074000
     32 C8           1.2840     1.6060     0.7010 ca         1 CVA      -0.104000
     33 C13          4.7900     1.5520    -0.7630 c          1 CVA       0.616700
     34 O1           5.5150     2.3380    -1.3590 o          1 CVA      -0.611100
     35 N            5.2340     0.3780    -0.2930 ns         1 CVA      -0.496900
     36 C14          6.6000    -0.0380    -0.4320 c3         1 CVA       0.019000
     37 C15          6.7970    -1.3670     0.2820 c          1 CVA       0.589100
     38 O2           5.8500    -1.9910     0.7410 o          1 CVA      -0.619100
     39 N1           8.0690    -1.7720     0.3380 ns         1 CVA      -0.496900
     40 C16          8.5080    -3.0170     0.9300 c3         1 CVA       0.098000
     41 C17          9.3840    -3.8110    -0.0140 c3         1 CVA       0.139600
     42 O3          10.5340    -3.0460    -0.3030 oh         1 CVA      -0.669000
     43 H1          -4.1340    -3.6170     0.1460 h1         1 CVA       0.077700
     44 H2          -4.0110    -2.6630    -2.0490 hc         1 CVA       0.048700
     45 H3          -2.7330    -4.8490    -1.7960 hc         1 CVA       0.038950
     46 H4          -0.1530    -4.3560    -2.2600 hc         1 CVA       0.036950
     47 H5          -0.4650    -2.8560    -1.4350 hc         1 CVA       0.036950
     48 H6          -0.4600    -5.6820    -0.3580 hc         1 CVA       0.036950
     49 H7           0.3700    -4.2700     0.2400 hc         1 CVA       0.036950
     50 H8          -2.5030    -5.1250     0.6650 hc         1 CVA       0.038950
     51 H9          -1.2880    -4.7140     1.8360 hc         1 CVA       0.038950
     52 H10         -1.4870    -2.2580     0.7980 hc         1 CVA       0.048700
     53 H11         -2.6380    -2.8520     1.9740 hc         1 CVA       0.048700
     54 H12         -5.5670    -0.1750     2.3170 hc         1 CVA       0.077700
     55 H13         -5.7470     1.7760     0.8870 hc         1 CVA       0.071700
     56 H14         -5.8420     1.7240    -1.4910 hc         1 CVA       0.057200
     57 H15         -5.5000     0.0220    -1.5960 hc         1 CVA       0.057200
     58 H16         -8.0220     0.6250    -1.9200 ha         1 CVA       0.176000
     59 H17         -9.2160    -0.1600     0.0050 ha         1 CVA       0.177000
     60 H18         -7.8900    -1.1680     1.8300 hc         1 CVA       0.062700
     61 H19         -7.7880     0.5460     2.1090 hc         1 CVA       0.062700
     62 H20         -4.5980     3.3660     0.4850 ha         1 CVA       0.113000
     63 H21         -3.1050     5.2510     0.3350 ha         1 CVA       0.120000
     64 H22         -1.2930     0.6840     0.0500 ha         1 CVA       0.139000
     65 H23         -1.5770     6.6320    -0.7090 h1         1 CVA       0.043700
     66 H24         -1.3680     6.6100     1.0570 h1         1 CVA       0.043700
     67 H25         -0.0030     7.0270     0.0050 h1         1 CVA       0.043700
     68 H26          0.8880     3.7360    -1.8960 ha         1 CVA       0.121000
     69 H27          3.2530     3.1960    -2.1950 ha         1 CVA       0.126000
     70 H28          3.0920     0.6220     1.2350 ha         1 CVA       0.126000
     71 H29          0.7430     1.1730     1.5340 ha         1 CVA       0.121000
     72 H30          4.5960    -0.3070     0.0850 hn         1 CVA       0.345500
     73 H31          6.8780    -0.1640    -1.4840 h1         1 CVA       0.067200
     74 H32          7.2810     0.7090    -0.0150 h1         1 CVA       0.067200
     75 H33          8.7810    -1.1710    -0.0480 hn         1 CVA       0.329500
     76 H34          9.0490    -2.8170     1.8600 h1         1 CVA       0.066700
     77 H35          7.6330    -3.6100     1.1870 h1         1 CVA       0.066700
     78 H36          9.6360    -4.7610     0.4720 h1         1 CVA       0.031200
     79 H37          8.8160    -4.0500    -0.9210 h1         1 CVA       0.031200
     80 H38         11.0320    -3.4940    -0.9930 ho         1 CVA       0.449000
     81 H39         -2.5300    -1.8000    -1.6780 hc         1 CVA       0.048700
     82 H40         -2.2410    -3.8090    -3.1060 hc         1 CVA       0.038950
@<TRIPOS>BOND
     1     1     2 2   
     2     2     3 1   
     3     2    12 1   
     4     3     4 1   
     5     3    11 1   
     6     4     5 1   
     7     4    10 1   
     8     4    43 1   
     9     5     6 1   
    10     5    44 1   
    11     5    81 1   
    12     6     7 1   
    13     6    45 1   
    14     6    82 1   
    15     7     8 1   
    16     7    46 1   
    17     7    47 1   
    18     8     9 1   
    19     8    48 1   
    20     8    49 1   
    21     9    10 1   
    22     9    50 1   
    23     9    51 1   
    24    10    52 1   
    25    10    53 1   
    26    11    18 2   
    27    12    13 1   
    28    12    17 1   
    29    12    54 1   
    30    13    14 1   
    31    13    18 1   
    32    13    55 1   
    33    14    15 1   
    34    14    56 1   
    35    14    57 1   
    36    15    16 2   
    37    15    58 1   
    38    16    17 1   
    39    16    59 1   
    40    17    60 1   
    41    17    61 1   
    42    18    19 1   
    43    19    20 ar  
    44    19    22 ar  
    45    20    21 ar  
    46    20    62 1   
    47    21    24 ar  
    48    21    63 1   
    49    22    23 ar  
    50    22    64 1   
    51    23    24 ar  
    52    23    27 1   
    53    24    25 1   
    54    25    26 1   
    55    26    65 1   
    56    26    66 1   
    57    26    67 1   
    58    27    28 ar  
    59    27    32 ar  
    60    28    29 ar  
    61    28    68 1   
    62    29    30 ar  
    63    29    69 1   
    64    30    31 ar  
    65    30    33 1   
    66    31    32 ar  
    67    31    70 1   
    68    32    71 1   
    69    33    34 2   
    70    33    35 1   
    71    35    36 1   
    72    35    72 1   
    73    36    37 1   
    74    36    73 1   
    75    36    74 1   
    76    37    38 2   
    77    37    39 1   
    78    39    40 1   
    79    39    75 1   
    80    40    41 1   
    81    40    76 1   
    82    40    77 1   
    83    41    42 1   
    84    41    78 1   
    85    41    79 1   
    86    42    80 1   
@<TRIPOS>SUBSTRUCTURE
     1 CVA         1 TEMP              0 ****  ****    0 ROOT
