@<TRIPOS>MOLECULE
CVD
   56    59     1     0     0
SMALL
No Charge or Current Charge


@<TRIPOS>ATOM
      1 O1          -0.2820    -0.2640    -0.0240 oh         1 CVD      -0.622000
      2 C1           0.2390    -1.3970     0.6870 c3         1 CVD       0.172300
      3 C2           1.5040    -1.9720    -0.0020 c3         1 CVD       0.124600
      4 O2           2.5590    -0.9950     0.0750 os         1 CVD      -0.323100
      5 C3           3.8120    -1.2310    -0.4500 ca         1 CVD       0.203100
      6 C14          4.1770    -2.4470    -1.0820 ca         1 CVD      -0.248000
      7 C13          5.4840    -2.6280    -1.5970 ca         1 CVD      -0.040000
      8 C12          6.4450    -1.6010    -1.4900 ca         1 CVD      -0.184000
      9 C6           6.0560    -0.4150    -0.8630 ca         1 CVD       0.030800
     10 C4           4.7780    -0.2080    -0.3480 cp         1 CVD      -0.121000
     11 C5           4.7380     1.1370     0.2270 cp         1 CVD      -0.066000
     12 C8           3.7140     1.8640     0.8680 ca         1 CVD      -0.044000
     13 C11          4.0000     3.1730     1.3180 ca         1 CVD      -0.148000
     14 C10          5.2850     3.7420     1.1280 ca         1 CVD      -0.084000
     15 C9           6.3050     3.0100     0.4830 ca         1 CVD      -0.146000
     16 C7           5.9920     1.7180     0.0500 ca         1 CVD      -0.015200
     17 N1           6.7750     0.7610    -0.6110 na         1 CVD      -0.232600
     18 C15         -0.9120    -2.4320     0.7780 c3         1 CVD       0.124800
     19 N2          -2.1980    -1.7510     1.0790 n7         1 CVD      -0.832400
     20 C16         -3.4090    -2.6020     0.9520 c3         1 CVD       0.159800
     21 C17         -4.7150    -1.8220     1.2520 c3         1 CVD       0.162600
     22 O3          -4.8860    -0.7930     0.2570 os         1 CVD      -0.307100
     23 C18         -5.9700     0.0700     0.2580 ca         1 CVD       0.113100
     24 C23         -6.9810    -0.0060     1.2450 ca         1 CVD      -0.176000
     25 C22         -8.0660     0.8860     1.2140 ca         1 CVD      -0.110000
     26 C21         -8.1520     1.8570     0.2060 ca         1 CVD      -0.110000
     27 C20         -7.1550     1.9440    -0.7790 ca         1 CVD      -0.172000
     28 C19         -6.0570     1.0510    -0.7600 ca         1 CVD       0.114100
     29 O4          -5.0550     1.1070    -1.7160 os         1 CVD      -0.316100
     30 C24         -5.0600     2.0700    -2.7840 c3         1 CVD       0.145900
     31 H1          -1.2570    -0.3850     0.0840 ho         1 CVD       0.442000
     32 HA           0.5080    -1.1040     1.7110 h1         1 CVD       0.082700
     33 H21C         1.8020    -2.8940     0.5130 h1         1 CVD       0.036700
     34 H22C         1.2740    -2.2160    -1.0470 h1         1 CVD       0.036700
     35 H151        -0.9860    -2.9550    -0.1850 h1         1 CVD       0.031200
     36 H152        -0.6750    -3.1820     1.5450 h1         1 CVD       0.031200
     37 H14          3.4630    -3.2600    -1.1810 ha         1 CVD       0.114000
     38 H13          5.7500    -3.5660    -2.0790 ha         1 CVD       0.108000
     39 H12          7.4520    -1.7290    -1.8810 ha         1 CVD       0.118000
     40 H8           2.7280     1.4310     1.0130 ha         1 CVD       0.136000
     41 H11          3.2240     3.7500     1.8150 ha         1 CVD       0.113000
     42 H10          5.4860     4.7510     1.4810 ha         1 CVD       0.109000
     43 H91          7.2940     3.4350     0.3300 ha         1 CVD       0.112000
     44 H2          -2.1620    -1.3900     2.0430 hn         1 CVD       0.411000
     45 H161        -3.4770    -3.0180    -0.0630 h1         1 CVD       0.039200
     46 H162        -3.3470    -3.4490     1.6480 h1         1 CVD       0.039200
     47 H171        -5.5600    -2.5230     1.2250 h1         1 CVD       0.032200
     48 H172        -4.6570    -1.3880     2.2580 h1         1 CVD       0.032200
     49 H23         -6.9430    -0.7470     2.0380 ha         1 CVD       0.114000
     50 H22         -8.8420     0.8240     1.9750 ha         1 CVD       0.112000
     51 H21         -8.9950     2.5450     0.1880 ha         1 CVD       0.112000
     52 H20         -7.2500     2.7060    -1.5460 ha         1 CVD       0.117000
     53 H241        -5.9520     1.9520    -3.4120 h1         1 CVD       0.038700
     54 H242        -5.0390     3.0930    -2.3870 h1         1 CVD       0.038700
     55 H243        -4.1760     1.9350    -3.4210 h1         1 CVD       0.038700
     56 HN1          7.7430     0.9020    -0.8770 hn         1 CVD       0.352000
@<TRIPOS>BOND
     1     1     2 1   
     2     1    31 1   
     3     2     3 1   
     4     2    18 1   
     5     2    32 1   
     6     3     4 1   
     7     3    33 1   
     8     3    34 1   
     9     4     5 1   
    10     5     6 ar  
    11     5    10 ar  
    12     6     7 ar  
    13     6    37 1   
    14     7     8 ar  
    15     7    38 1   
    16     8     9 ar  
    17     8    39 1   
    18     9    10 ar  
    19     9    17 1   
    20    10    11 1   
    21    11    12 ar  
    22    11    16 ar  
    23    12    13 ar  
    24    12    40 1   
    25    13    14 ar  
    26    13    41 1   
    27    14    15 ar  
    28    14    42 1   
    29    15    16 ar  
    30    15    43 1   
    31    16    17 1   
    32    17    56 1   
    33    18    19 1   
    34    18    35 1   
    35    18    36 1   
    36    19    20 1   
    37    19    44 1   
    38    20    21 1   
    39    20    45 1   
    40    20    46 1   
    41    21    22 1   
    42    21    47 1   
    43    21    48 1   
    44    22    23 1   
    45    23    24 ar  
    46    23    28 ar  
    47    24    25 ar  
    48    24    49 1   
    49    25    26 ar  
    50    25    50 1   
    51    26    27 ar  
    52    26    51 1   
    53    27    28 ar  
    54    27    52 1   
    55    28    29 1   
    56    29    30 1   
    57    30    53 1   
    58    30    54 1   
    59    30    55 1   
@<TRIPOS>SUBSTRUCTURE
     1 CVD         1 TEMP              0 ****  ****    0 ROOT
