@<TRIPOS>MOLECULE
CVD
   56    59     1     0     0
SMALL
abcg2


@<TRIPOS>ATOM
      1 O1          -0.0060    -0.0190    -0.6310 oh         1 CVD      -0.622000
      2 C1           0.1940    -1.1280     0.2080 c3         1 CVD       0.172300
      3 C2           1.5000    -1.8490    -0.0880 c3         1 CVD       0.124600
      4 O2           2.5480    -0.9030    -0.0180 os         1 CVD      -0.323100
      5 C3           3.8140    -1.3170    -0.1770 ca         1 CVD       0.203100
      6 C14          4.2110    -2.6310    -0.3860 ca         1 CVD      -0.248000
      7 C13          5.5720    -2.9400    -0.5180 ca         1 CVD      -0.040000
      8 C12          6.5630    -1.9810    -0.4480 ca         1 CVD      -0.184000
      9 C6           6.1490    -0.6640    -0.2450 ca         1 CVD       0.030800
     10 C4           4.7930    -0.3180    -0.1160 cp         1 CVD      -0.121000
     11 C5           4.7370     1.1080     0.0670 cp         1 CVD      -0.066000
     12 C8           3.7060     2.0350     0.2320 ca         1 CVD      -0.044000
     13 C11          4.0290     3.3740     0.3810 ca         1 CVD      -0.148000
     14 C10          5.3630     3.7980     0.3660 ca         1 CVD      -0.084000
     15 C9           6.4040     2.9000     0.1990 ca         1 CVD      -0.146000
     16 C7           6.0760     1.5570     0.0480 ca         1 CVD      -0.015200
     17 N1           6.8990     0.4760    -0.1400 na         1 CVD      -0.232600
     18 C15         -0.9540    -2.1300     0.1560 c3         1 CVD       0.124800
     19 N2          -2.2030    -1.5340     0.5750 n7         1 CVD      -0.832400
     20 C16         -3.3210    -2.4460     0.4520 c3         1 CVD       0.159800
     21 C17         -4.6150    -1.8300     0.9300 c3         1 CVD       0.162600
     22 O3          -4.9160    -0.7100     0.1190 os         1 CVD      -0.307100
     23 C18         -6.0380    -0.0150     0.3840 ca         1 CVD       0.113100
     24 C23         -6.9510    -0.3240     1.3800 ca         1 CVD      -0.176000
     25 C22         -8.0880     0.4620     1.5680 ca         1 CVD      -0.110000
     26 C21         -8.3130     1.5570     0.7610 ca         1 CVD      -0.110000
     27 C20         -7.4000     1.8810    -0.2440 ca         1 CVD      -0.172000
     28 C19         -6.2670     1.1080    -0.4400 ca         1 CVD       0.114100
     29 O4          -5.3290     1.3390    -1.3780 os         1 CVD      -0.316100
     30 C24         -5.4830     2.4700    -2.2100 c3         1 CVD       0.145900
     31 H1          -0.1660    -0.3350    -1.5270 ho         1 CVD       0.442000
     32 HA           0.2580    -0.7210     1.2240 h1         1 CVD       0.082700
     33 H21C         1.6490    -2.6490     0.6450 h1         1 CVD       0.036700
     34 H22C         1.4690    -2.3130    -1.0830 h1         1 CVD       0.036700
     35 H151        -1.0690    -2.4880    -0.8740 h1         1 CVD       0.031200
     36 H152        -0.6790    -3.0140     0.7530 h1         1 CVD       0.031200
     37 H14          3.4890    -3.4330    -0.4470 ha         1 CVD       0.114000
     38 H13          5.8500    -3.9740    -0.6790 ha         1 CVD       0.108000
     39 H12          7.6090    -2.2380    -0.5510 ha         1 CVD       0.118000
     40 H8           2.6720     1.7180     0.2330 ha         1 CVD       0.136000
     41 H11          3.2410     4.1040     0.5080 ha         1 CVD       0.113000
     42 H10          5.5870     4.8510     0.4850 ha         1 CVD       0.109000
     43 H91          7.4340     3.2320     0.1850 ha         1 CVD       0.112000
     44 H2          -2.1200    -1.2440     1.5430 hn         1 CVD       0.411000
     45 H161        -3.4250    -2.7380    -0.5970 h1         1 CVD       0.039200
     46 H162        -3.1830    -3.3810     1.0180 h1         1 CVD       0.039200
     47 H171        -5.4100    -2.5810     0.8690 h1         1 CVD       0.032200
     48 H172        -4.5280    -1.5300     1.9820 h1         1 CVD       0.032200
     49 H23         -6.7960    -1.1780     2.0250 ha         1 CVD       0.114000
     50 H22         -8.7890     0.2010     2.3500 ha         1 CVD       0.112000
     51 H21         -9.1920     2.1720     0.8960 ha         1 CVD       0.112000
     52 H20         -7.5910     2.7440    -0.8690 ha         1 CVD       0.117000
     53 H241        -6.3930     2.4170    -2.8130 h1         1 CVD       0.038700
     54 H242        -5.4970     3.4010    -1.6360 h1         1 CVD       0.038700
     55 H243        -4.6230     2.4830    -2.8750 h1         1 CVD       0.038700
     56 HN1          7.9030     0.5140    -0.1920 hn         1 CVD       0.352000
@<TRIPOS>BOND
     1     1     2 1   
     2     1    31 1   
     3     2     3 1   
     4     2    18 1   
     5     2    32 1   
     6     3     4 1   
     7     3    33 1   
     8     3    34 1   
     9     4     5 1   
    10     5     6 ar  
    11     5    10 ar  
    12     6     7 ar  
    13     6    37 1   
    14     7     8 ar  
    15     7    38 1   
    16     8     9 ar  
    17     8    39 1   
    18     9    10 ar  
    19     9    17 1   
    20    10    11 1   
    21    11    12 ar  
    22    11    16 ar  
    23    12    13 ar  
    24    12    40 1   
    25    13    14 ar  
    26    13    41 1   
    27    14    15 ar  
    28    14    42 1   
    29    15    16 ar  
    30    15    43 1   
    31    16    17 1   
    32    17    56 1   
    33    18    19 1   
    34    18    35 1   
    35    18    36 1   
    36    19    20 1   
    37    19    44 1   
    38    20    21 1   
    39    20    45 1   
    40    20    46 1   
    41    21    22 1   
    42    21    47 1   
    43    21    48 1   
    44    22    23 1   
    45    23    24 ar  
    46    23    28 ar  
    47    24    25 ar  
    48    24    49 1   
    49    25    26 ar  
    50    25    50 1   
    51    26    27 ar  
    52    26    51 1   
    53    27    28 ar  
    54    27    52 1   
    55    28    29 1   
    56    29    30 1   
    57    30    53 1   
    58    30    54 1   
    59    30    55 1   
@<TRIPOS>SUBSTRUCTURE
     1 CVD         1 TEMP              0 ****  ****    0 ROOT
