@<TRIPOS>MOLECULE
CVE
   67    70     1     0     0
SMALL
abcg2


@<TRIPOS>ATOM
      1 C4          -0.2580    31.4440     7.7010 c          1 CVE       0.576200
      2 C6          -1.9030    29.9050     8.6950 c          1 CVE       0.616000
      3 N1          -2.3930    30.9690     9.4140 n          1 CVE      -0.305000
      4 C9          -0.3020    29.0910     7.0270 c3         1 CVE       0.018700
      5 C10          1.0320    28.5880     7.5670 c3         1 CVE      -0.103100
      6 C11         -0.3700    29.5090     5.5480 c          1 CVE       0.599100
      7 O7          -2.3740    28.7810     8.8030 o          1 CVE      -0.571000
      8 C14         -3.5070    30.6980    10.3260 c3         1 CVE       0.104300
      9 O8           0.6980    31.6230     6.9500 o          1 CVE      -0.524000
     10 C2          -1.8940    32.2400     9.2970 cc         1 CVE      -0.051400
     11 C3          -0.8580    32.5160     8.4730 cd         1 CVE      -0.112600
     12 N5          -0.8370    30.1920     7.8460 n          1 CVE      -0.342400
     13 N12          0.6570    29.1360     4.7730 ns         1 CVE      -0.486900
     14 O13         -1.3720    30.0890     5.1300 o          1 CVE      -0.600100
     15 N15         -0.2620    33.7560     8.2550 ns         1 CVE      -0.383100
     16 C16         -0.6390    34.9620     8.7590 c          1 CVE       0.625700
     17 C17          0.1810    36.1280     8.3360 ca         1 CVE      -0.180600
     18 O18         -1.6090    35.0800     9.5100 o          1 CVE      -0.628100
     19 C19         -0.3560    37.4090     8.5120 ca         1 CVE      -0.033000
     20 C20          0.3470    38.5300     8.1270 ca         1 CVE      -0.166500
     21 C21          1.6270    38.4160     7.5570 ca         1 CVE       0.333000
     22 C22          2.1810    37.1390     7.3970 ca         1 CVE      -0.166500
     23 C23          1.4580    36.0210     7.7820 ca         1 CVE      -0.033000
     24 N24          2.2600    39.6000     7.1990 nu         1 CVE      -0.937900
     25 C25          3.4510    39.8320     6.5600 ca         1 CVE       0.571900
     26 C26          3.7940    41.2140     6.3350 ca         1 CVE       0.267900
     27 N27          4.8900    41.5690     5.7400 nb         1 CVE      -0.603000
     28 N28          4.2420    38.8620     6.1690 nb         1 CVE      -0.701000
     29 C29          5.4000    39.2140     5.5410 ca         1 CVE       0.279000
     30 C30          5.7360    40.5750     5.3200 ca         1 CVE       0.175000
     31 C31          6.9390    40.9070     4.6690 ca         1 CVE      -0.062000
     32 C32          7.7900    39.9120     4.2460 ca         1 CVE      -0.120000
     33 C33          7.4600    38.5590     4.4640 ca         1 CVE      -0.087000
     34 C34          6.2900    38.2120     5.0980 ca         1 CVE      -0.085000
     35 C35          0.7650    29.4660     3.3540 c3         1 CVE       0.115700
     36 C36          1.0360    28.1630     2.6080 c3         1 CVE       0.160600
     37 O37          0.5430    31.7370     1.5130 o          1 CVE      -0.735500
     38 C39          1.8370    30.5340     3.1230 c3         1 CVE      -0.212400
     39 O40          2.7550    31.5780     1.1750 o          1 CVE      -0.735500
     40 O41          1.0900    28.4190     1.2070 oh         1 CVE      -0.613000
     41 H1          -1.0350    28.2930     7.1210 h1         1 CVE       0.096700
     42 H2           0.9150    28.3310     8.6200 hc         1 CVE       0.047700
     43 H3           1.3350    27.6820     7.0410 hc         1 CVE       0.047700
     44 H4           1.8160    29.3370     7.4760 hc         1 CVE       0.047700
     45 H5          -3.7720    31.6270    10.8220 h1         1 CVE       0.052033
     46 H6          -4.3620    30.3200     9.7690 h1         1 CVE       0.052033
     47 H7          -3.2090    29.9580    11.0670 h1         1 CVE       0.052033
     48 H8          -2.3710    32.9990     9.8920 h4         1 CVE       0.238000
     49 H9           1.4750    28.7450     5.2140 hn         1 CVE       0.295500
     50 H10          0.4840    33.7150     7.5740 hn         1 CVE       0.355500
     51 H11         -1.3400    37.5110     8.9480 ha         1 CVE       0.129500
     52 H12         -0.0870    39.5140     8.2600 ha         1 CVE       0.133000
     53 H13          3.1660    37.0320     6.9770 ha         1 CVE       0.133000
     54 H14          1.9340    35.0560     7.6640 ha         1 CVE       0.129500
     55 H15          1.7380    40.4350     7.4220 hn         1 CVE       0.495000
     56 H16          3.1150    41.9930     6.6720 h4         1 CVE       0.021100
     57 H17          7.1690    41.9530     4.5130 ha         1 CVE       0.126000
     58 H18          8.7150    40.1650     3.7440 ha         1 CVE       0.116000
     59 H19          8.1380    37.7850     4.1260 ha         1 CVE       0.121000
     60 H20          6.0280    37.1760     5.2690 ha         1 CVE       0.141000
     61 H21         -0.2000    29.8660     3.0510 h1         1 CVE       0.120700
     62 H22          0.2400    27.4480     2.8410 h1         1 CVE      -0.003800
     63 H23          1.9870    27.7420     2.9590 h1         1 CVE      -0.003800
     64 H25          2.8310    30.0870     3.1840 hc         1 CVE       0.026200
     65 H26          1.7580    31.2650     3.9340 hc         1 CVE       0.026200
     66 H27          1.3750    27.6110     0.7650 ho         1 CVE       0.415000
     67 C38          1.6970    31.3370     1.8130 c          1 CVE       0.725000
@<TRIPOS>BOND
     1     1     9 2   
     2     1    11 1   
     3     1    12 1   
     4     2     3 1   
     5     2     7 2   
     6     2    12 1   
     7     3     8 1   
     8     3    10 1   
     9     4     5 1   
    10     4     6 1   
    11     4    12 1   
    12     4    41 1   
    13     5    42 1   
    14     5    43 1   
    15     5    44 1   
    16     6    13 1   
    17     6    14 2   
    18     8    45 1   
    19     8    46 1   
    20     8    47 1   
    21    10    11 2   
    22    10    48 1   
    23    11    15 1   
    24    13    35 1   
    25    13    49 1   
    26    15    16 1   
    27    15    50 1   
    28    16    17 1   
    29    16    18 2   
    30    17    19 ar  
    31    17    23 ar  
    32    19    20 ar  
    33    19    51 1   
    34    20    21 ar  
    35    20    52 1   
    36    21    22 ar  
    37    21    24 1   
    38    22    23 ar  
    39    22    53 1   
    40    23    54 1   
    41    24    25 1   
    42    24    55 1   
    43    25    26 ar  
    44    25    28 ar  
    45    26    27 ar  
    46    26    56 1   
    47    27    30 ar  
    48    28    29 ar  
    49    29    30 ar  
    50    29    34 ar  
    51    30    31 ar  
    52    31    32 ar  
    53    31    57 1   
    54    32    33 ar  
    55    32    58 1   
    56    33    34 ar  
    57    33    59 1   
    58    34    60 1   
    59    35    36 1   
    60    35    38 1   
    61    35    61 1   
    62    36    40 1   
    63    36    62 1   
    64    36    63 1   
    65    37    67 1   
    66    38    64 1   
    67    38    65 1   
    68    38    67 1   
    69    39    67 1   
    70    40    66 1   
@<TRIPOS>SUBSTRUCTURE
     1 CVE         1 TEMP              0 ****  ****    0 ROOT
