@<TRIPOS>MOLECULE
CVE
   67    70     1     0     0
SMALL
No Charge or Current Charge


@<TRIPOS>ATOM
      1 C4          -0.1110    31.6030     7.5540 c          1 CVE       0.576200
      2 C6          -1.5390    29.9580     8.7330 c          1 CVE       0.616000
      3 N1          -2.0660    31.0030     9.5220 n          1 CVE      -0.305000
      4 C9          -0.0540    29.1990     6.8600 c3         1 CVE       0.018700
      5 C10          1.3320    28.6920     7.3390 c3         1 CVE      -0.103100
      6 C11         -0.1660    29.5010     5.3320 c          1 CVE       0.599100
      7 O7          -1.9100    28.8030     8.9020 o          1 CVE      -0.571000
      8 C14         -3.0780    30.6520    10.5480 c3         1 CVE       0.104300
      9 O8           0.7620    31.8740     6.7360 o          1 CVE      -0.524000
     10 C2          -1.6650    32.3270     9.3570 cc         1 CVE      -0.051400
     11 C3          -0.7150    32.6610     8.4160 cd         1 CVE      -0.112600
     12 N5          -0.5820    30.2910     7.7570 n          1 CVE      -0.342400
     13 N12          0.7720    28.8980     4.5160 ns         1 CVE      -0.486900
     14 O13         -1.0520    30.2080     4.8660 o          1 CVE      -0.600100
     15 N15         -0.2690    33.9810     8.2270 ns         1 CVE      -0.383100
     16 C16         -0.6240    35.1680     8.8530 c          1 CVE       0.625700
     17 C17          0.0880    36.4190     8.3700 ca         1 CVE      -0.180600
     18 O18         -1.4600    35.2220     9.7450 o          1 CVE      -0.628100
     19 C19         -0.2190    37.6610     8.9710 ca         1 CVE      -0.033000
     20 C20          0.4190    38.8410     8.5530 ca         1 CVE      -0.166500
     21 C21          1.3840    38.8120     7.5370 ca         1 CVE       0.333000
     22 C22          1.6830    37.5860     6.9210 ca         1 CVE      -0.166500
     23 C23          1.0510    36.3990     7.3300 ca         1 CVE      -0.033000
     24 N24          1.9750    40.0150     7.1420 nu         1 CVE      -0.937900
     25 C25          3.2010    40.3590     6.5670 ca         1 CVE       0.571900
     26 C26          3.4730    41.6530     6.0210 ca         1 CVE       0.267900
     27 N27          4.6830    41.9860     5.4920 nb         1 CVE      -0.603000
     28 N28          4.1410    39.3970     6.6070 nb         1 CVE      -0.701000
     29 C29          5.3560    39.7110     6.0810 ca         1 CVE       0.279000
     30 C30          5.6290    41.0090     5.5210 ca         1 CVE       0.175000
     31 C31          6.9080    41.2700     4.9920 ca         1 CVE      -0.062000
     32 C32          7.9110    40.2860     5.0070 ca         1 CVE      -0.120000
     33 C33          7.6460    39.0230     5.5540 ca         1 CVE      -0.087000
     34 C34          6.3770    38.7420     6.0860 ca         1 CVE      -0.085000
     35 C35          0.8260    29.0380     3.0550 c3         1 CVE       0.115700
     36 C36         -0.1910    28.0700     2.3780 c3         1 CVE       0.160600
     37 O37          2.6330    30.3570     0.8020 o          1 CVE      -0.735500
     38 C39          2.3010    28.8630     2.6090 c3         1 CVE      -0.212400
     39 O40          2.5460    28.2570     0.3270 o          1 CVE      -0.735500
     40 O41         -0.5240    28.4970     1.0530 oh         1 CVE      -0.613000
     41 H1          -0.7130    28.3280     6.9520 h1         1 CVE       0.096700
     42 H2           1.3100    28.4870     8.4160 hc         1 CVE       0.047700
     43 H3           1.6130    27.7600     6.8330 hc         1 CVE       0.047700
     44 H4           2.1110    29.4410     7.1510 hc         1 CVE       0.047700
     45 H5          -3.4080    31.5440    11.0940 h1         1 CVE       0.052033
     46 H6          -3.9500    30.1930    10.0650 h1         1 CVE       0.052033
     47 H7          -2.6480    29.9400    11.2640 h1         1 CVE       0.052033
     48 H8          -2.1710    33.0030    10.0370 h4         1 CVE       0.238000
     49 H9           1.4750    28.3270     4.9670 hn         1 CVE       0.295500
     50 H10          0.4370    34.1170     7.5140 hn         1 CVE       0.355500
     51 H11         -0.9580    37.7190     9.7690 ha         1 CVE       0.129500
     52 H12          0.1630    39.7820     9.0330 ha         1 CVE       0.133000
     53 H13          2.4000    37.5450     6.1070 ha         1 CVE       0.133000
     54 H14          1.3220    35.4790     6.8190 ha         1 CVE       0.129500
     55 H15          1.4190    40.8350     7.3790 hn         1 CVE       0.495000
     56 H16          2.7080    42.4290     6.0090 h4         1 CVE       0.021100
     57 H17          7.1220    42.2470     4.5670 ha         1 CVE       0.126000
     58 H18          8.8940    40.5060     4.5940 ha         1 CVE       0.116000
     59 H19          8.4230    38.2600     5.5660 ha         1 CVE       0.121000
     60 H20          6.1780    37.7610     6.5080 ha         1 CVE       0.141000
     61 H21          0.5170    30.0640     2.8060 h1         1 CVE       0.120700
     62 H22         -1.1080    28.0360     2.9800 h1         1 CVE      -0.003800
     63 H23          0.2260    27.0540     2.3610 h1         1 CVE      -0.003800
     64 H25          2.5830    27.8250     2.8230 hc         1 CVE       0.026200
     65 H26          2.8560    29.5980     3.2060 hc         1 CVE       0.026200
     66 H27         -1.1010    27.8030     0.6670 ho         1 CVE       0.415000
     67 C38          2.4940    29.1850     1.1200 c          1 CVE       0.725000
@<TRIPOS>BOND
     1     1     9 2   
     2     1    11 1   
     3     1    12 1   
     4     2     3 1   
     5     2     7 2   
     6     2    12 1   
     7     3     8 1   
     8     3    10 1   
     9     4     5 1   
    10     4     6 1   
    11     4    12 1   
    12     4    41 1   
    13     5    42 1   
    14     5    43 1   
    15     5    44 1   
    16     6    13 1   
    17     6    14 2   
    18     8    45 1   
    19     8    46 1   
    20     8    47 1   
    21    10    11 2   
    22    10    48 1   
    23    11    15 1   
    24    13    35 1   
    25    13    49 1   
    26    15    16 1   
    27    15    50 1   
    28    16    17 1   
    29    16    18 2   
    30    17    19 ar  
    31    17    23 ar  
    32    19    20 ar  
    33    19    51 1   
    34    20    21 ar  
    35    20    52 1   
    36    21    22 ar  
    37    21    24 1   
    38    22    23 ar  
    39    22    53 1   
    40    23    54 1   
    41    24    25 1   
    42    24    55 1   
    43    25    26 ar  
    44    25    28 ar  
    45    26    27 ar  
    46    26    56 1   
    47    27    30 ar  
    48    28    29 ar  
    49    29    30 ar  
    50    29    34 ar  
    51    30    31 ar  
    52    31    32 ar  
    53    31    57 1   
    54    32    33 ar  
    55    32    58 1   
    56    33    34 ar  
    57    33    59 1   
    58    34    60 1   
    59    35    36 1   
    60    35    38 1   
    61    35    61 1   
    62    36    40 1   
    63    36    62 1   
    64    36    63 1   
    65    37    67 1   
    66    38    64 1   
    67    38    65 1   
    68    38    67 1   
    69    39    67 1   
    70    40    66 1   
@<TRIPOS>SUBSTRUCTURE
     1 CVE         1 TEMP              0 ****  ****    0 ROOT
