@<TRIPOS>MOLECULE
CVF
   37    38     1     0     0
SMALL
bcc


@<TRIPOS>ATOM
      1 N            5.6230     0.1810    -0.2580 ns         1 CVF      -0.575900
      2 C            7.9930     0.4360     0.1280 c3         1 CVF      -0.179100
      3 O           -6.7760     0.8010    -0.3650 o          1 CVF      -0.824800
      4 C1           6.6010     0.1970     0.6590 c          1 CVF       0.662100
      5 C10         -2.2420    -0.6780     0.1350 cp         1 CVF      -0.094000
      6 C11         -2.6660    -1.7550     0.9160 ca         1 CVF      -0.137000
      7 C12         -4.0130    -1.9340     1.1920 ca         1 CVF      -0.169000
      8 C13         -4.9560    -1.0450     0.6950 ca         1 CVF      -0.092000
      9 C14         -4.5590     0.0390    -0.0840 ca         1 CVF      -0.139600
     10 C15         -5.5820     1.0210    -0.6430 c          1 CVF       0.924200
     11 C16         -3.2040     0.2070    -0.3520 ca         1 CVF      -0.085000
     12 C2           4.2320    -0.0260     0.0820 c3         1 CVF       0.102000
     13 C3           3.3600     0.1050    -1.1630 c3         1 CVF      -0.039100
     14 C4           1.9080    -0.0970    -0.8360 ca         1 CVF      -0.112300
     15 C5           1.3710    -1.3770    -0.7200 ca         1 CVF      -0.125500
     16 C6           0.0360    -1.5670    -0.3970 ca         1 CVF      -0.126500
     17 C7           1.0660     0.9870    -0.6080 ca         1 CVF      -0.125500
     18 C8          -0.2700     0.8010    -0.2850 ca         1 CVF      -0.126500
     19 C9          -0.8120    -0.4800    -0.1780 cp         1 CVF       0.016000
     20 O1          -5.1340     1.9590    -1.3310 o          1 CVF      -0.824800
     21 O2           6.3820     0.0350     1.8530 o          1 CVF      -0.612100
     22 H3           5.8620     0.3110    -1.2270 hn         1 CVF       0.308500
     23 H2           8.0400     0.5100    -0.9580 hc         1 CVF       0.054700
     24 H1           8.3880     1.3590     0.5530 hc         1 CVF       0.054700
     25 H            8.6480    -0.3740     0.4470 hc         1 CVF       0.054700
     26 H12         -1.9410    -2.4470     1.3270 ha         1 CVF       0.104000
     27 H13         -4.3270    -2.7720     1.8020 ha         1 CVF       0.105000
     28 H14         -6.0060    -1.1920     0.9110 ha         1 CVF       0.146000
     29 H15         -2.9020     1.0410    -0.9720 ha         1 CVF       0.148000
     30 H4           4.0930    -1.0160     0.5270 h1         1 CVF       0.057200
     31 H5           3.9180     0.7060     0.8320 h1         1 CVF       0.057200
     32 H7           3.5050     1.0940    -1.6030 hc         1 CVF       0.041200
     33 H6           3.6800    -0.6280    -1.9080 hc         1 CVF       0.041200
     34 H8           2.0000    -2.2410    -0.8990 ha         1 CVF       0.117500
     35 H9          -0.3530    -2.5760    -0.3410 ha         1 CVF       0.139000
     36 H10          1.4580     1.9950    -0.6860 ha         1 CVF       0.117500
     37 H11         -0.8920     1.6690    -0.1040 ha         1 CVF       0.139000
@<TRIPOS>BOND
     1     1     4 1   
     2     1    12 1   
     3     1    22 1   
     4     2     4 1   
     5     2    23 1   
     6     2    24 1   
     7     2    25 1   
     8     3    10 1   
     9     4    21 2   
    10     5     6 ar  
    11     5    11 ar  
    12     5    19 1   
    13     6     7 ar  
    14     6    26 1   
    15     7     8 ar  
    16     7    27 1   
    17     8     9 ar  
    18     8    28 1   
    19     9    10 1   
    20     9    11 ar  
    21    10    20 1   
    22    11    29 1   
    23    12    13 1   
    24    12    30 1   
    25    12    31 1   
    26    13    14 1   
    27    13    32 1   
    28    13    33 1   
    29    14    15 ar  
    30    14    17 ar  
    31    15    16 ar  
    32    15    34 1   
    33    16    19 ar  
    34    16    35 1   
    35    17    18 ar  
    36    17    36 1   
    37    18    19 ar  
    38    18    37 1   
@<TRIPOS>SUBSTRUCTURE
     1 CVF         1 TEMP              0 ****  ****    0 ROOT
