@<TRIPOS>MOLECULE
CVF
   37    38     1     0     0
SMALL
No Charge or Current Charge


@<TRIPOS>ATOM
      1 N            5.6920     0.2150    -0.2080 ns         1 CVF      -0.508900
      2 C            8.0980     0.4210     0.1740 c3         1 CVF      -0.179100
      3 O           -6.8470     0.8980    -0.2460 o          1 CVF      -0.719500
      4 C1           6.6970     0.2000     0.7310 c          1 CVF       0.595100
      5 C10         -2.2870    -0.6890     0.0880 cp         1 CVF      -0.094000
      6 C11         -2.7240    -1.8170     0.8240 ca         1 CVF      -0.119000
      7 C12         -4.0820    -2.0000     1.1250 ca         1 CVF      -0.151000
      8 C13         -5.0350    -1.0630     0.6970 ca         1 CVF      -0.074000
      9 C14         -4.6400     0.0760    -0.0420 ca         1 CVF      -0.139600
     10 C15         -5.6690     1.0920    -0.5120 c          1 CVF       0.713600
     11 C16         -3.2660     0.2470    -0.3360 ca         1 CVF      -0.067000
     12 C2           4.2730     0.0240     0.0990 c3         1 CVF       0.102000
     13 C3           3.3970     0.0820    -1.1660 c3         1 CVF      -0.039100
     14 C4           1.9220    -0.1170    -0.8460 ca         1 CVF      -0.112300
     15 C5           1.3700    -1.4100    -0.8150 ca         1 CVF      -0.107500
     16 C6           0.0090    -1.5930    -0.5120 ca         1 CVF      -0.108500
     17 C7           1.0990     0.9890    -0.5690 ca         1 CVF      -0.107500
     18 C8          -0.2620     0.8040    -0.2680 ca         1 CVF      -0.108500
     19 C9          -0.8370    -0.4910    -0.2340 cp         1 CVF       0.016000
     20 O1          -5.2850     2.0690    -1.1390 o          1 CVF      -0.719500
     21 O2           6.4800     0.0230     1.9210 o          1 CVF      -0.612100
     22 H3           5.9680     0.3690    -1.1710 hn         1 CVF       0.308500
     23 H2           8.2920    -0.3220    -0.6080 hc         1 CVF       0.054700
     24 H1           8.1130     1.3610    -0.3900 hc         1 CVF       0.054700
     25 H            8.8700     0.4030     0.9510 hc         1 CVF       0.054700
     26 H12         -2.0040    -2.5500     1.1780 ha         1 CVF       0.086000
     27 H13         -4.3970    -2.8710     1.6950 ha         1 CVF       0.087000
     28 H14         -6.0820    -1.2260     0.9410 ha         1 CVF       0.128000
     29 H15         -2.9510     1.1110    -0.9160 ha         1 CVF       0.130000
     30 H4           4.1430    -0.9500     0.5890 h1         1 CVF       0.057200
     31 H5           3.9530     0.8060     0.8010 h1         1 CVF       0.057200
     32 H7           3.5480     1.0480    -1.6640 hc         1 CVF       0.041200
     33 H6           3.7360    -0.6850    -1.8730 hc         1 CVF       0.041200
     34 H8           1.9940    -2.2750    -1.0260 ha         1 CVF       0.099500
     35 H9          -0.3960    -2.6020    -0.5070 ha         1 CVF       0.121000
     36 H10          1.5130     1.9950    -0.5820 ha         1 CVF       0.099500
     37 H11         -0.8720     1.6750    -0.0440 ha         1 CVF       0.121000
@<TRIPOS>BOND
     1     1     4 1   
     2     1    12 1   
     3     1    22 1   
     4     2     4 1   
     5     2    23 1   
     6     2    24 1   
     7     2    25 1   
     8     3    10 1   
     9     4    21 2   
    10     5     6 ar  
    11     5    11 ar  
    12     5    19 1   
    13     6     7 ar  
    14     6    26 1   
    15     7     8 ar  
    16     7    27 1   
    17     8     9 ar  
    18     8    28 1   
    19     9    10 1   
    20     9    11 ar  
    21    10    20 1   
    22    11    29 1   
    23    12    13 1   
    24    12    30 1   
    25    12    31 1   
    26    13    14 1   
    27    13    32 1   
    28    13    33 1   
    29    14    15 ar  
    30    14    17 ar  
    31    15    16 ar  
    32    15    34 1   
    33    16    19 ar  
    34    16    35 1   
    35    17    18 ar  
    36    17    36 1   
    37    18    19 ar  
    38    18    37 1   
@<TRIPOS>SUBSTRUCTURE
     1 CVF         1 TEMP              0 ****  ****    0 ROOT
