@<TRIPOS>MOLECULE
CVG
   14    14     1     0     0
SMALL
abcg2


@<TRIPOS>ATOM
      1 C4           0.7290     1.3020    -0.1130 ca         1 CVG      -0.094000
      2 C3          -0.6310     1.3750    -0.1750 ca         1 CVG      -0.133000
      3 C2          -1.3180     0.1520    -0.1700 ca         1 CVG       0.522300
      4 C1           1.3350     0.0330    -0.0490 ca         1 CVG       0.263300
      5 O           -2.6480     0.1610    -0.2290 oh         1 CVG      -0.641300
      6 N1          -0.7070    -1.0070    -0.1080 nb         1 CVG      -0.421000
      7 N            0.6120    -1.0660    -0.0480 nb         1 CVG      -0.284000
      8 C            2.8220    -0.1100     0.0170 c3         1 CVG      -0.140400
      9 H5           1.3370     2.1970    -0.1110 ha         1 CVG       0.131000
     10 H4          -1.1620     2.3160    -0.2250 ha         1 CVG       0.145000
     11 H2           3.2920     0.2690    -0.8920 hc         1 CVG       0.054033
     12 H1           3.2330     0.4570     0.8530 hc         1 CVG       0.054033
     13 H            3.1030    -1.1550     0.1370 hc         1 CVG       0.054033
     14 H3          -2.9690    -0.7510    -0.2200 ho         1 CVG       0.491000
@<TRIPOS>BOND
     1     1     2 ar  
     2     1     4 ar  
     3     1     9 1   
     4     2     3 ar  
     5     2    10 1   
     6     3     5 1   
     7     3     6 ar  
     8     4     7 ar  
     9     4     8 1   
    10     5    14 1   
    11     6     7 ar  
    12     8    11 1   
    13     8    12 1   
    14     8    13 1   
@<TRIPOS>SUBSTRUCTURE
     1 CVG         1 TEMP              0 ****  ****    0 ROOT
