@<TRIPOS>MOLECULE
CVG
   14    14     1     0     0
SMALL
No Charge or Current Charge


@<TRIPOS>ATOM
      1 C4           0.7430     1.3230    -0.0100 ca         1 CVG      -0.094000
      2 C3          -0.6640     1.3870    -0.0750 ca         1 CVG      -0.133000
      3 C2          -1.3700     0.1790    -0.1950 ca         1 CVG       0.522300
      4 C1           1.3520     0.0520    -0.0670 ca         1 CVG       0.263300
      5 O           -2.7200     0.1540    -0.2650 oh         1 CVG      -0.641300
      6 N1          -0.7410    -1.0140    -0.2480 nb         1 CVG      -0.421000
      7 N            0.6090    -1.0790    -0.1850 nb         1 CVG      -0.284000
      8 C            2.8590    -0.1160    -0.0080 c3         1 CVG      -0.140400
      9 H5           1.3420     2.2260     0.0820 ha         1 CVG       0.131000
     10 H4          -1.1930     2.3340    -0.0360 ha         1 CVG       0.145000
     11 H2           3.2770    -0.2300    -1.0150 hc         1 CVG       0.054033
     12 H1           3.3390     0.7530     0.4580 hc         1 CVG       0.054033
     13 H            3.1390    -1.0010     0.5760 hc         1 CVG       0.054033
     14 H3          -2.9450    -0.7960    -0.3430 ho         1 CVG       0.491000
@<TRIPOS>BOND
     1     1     2 ar  
     2     1     4 ar  
     3     1     9 1   
     4     2     3 ar  
     5     2    10 1   
     6     3     5 1   
     7     3     6 ar  
     8     4     7 ar  
     9     4     8 1   
    10     5    14 1   
    11     6     7 ar  
    12     8    11 1   
    13     8    12 1   
    14     8    13 1   
@<TRIPOS>SUBSTRUCTURE
     1 CVG         1 TEMP              0 ****  ****    0 ROOT
