@<TRIPOS>MOLECULE
CVI
   58    60     1     0     0
SMALL
abcg2


@<TRIPOS>ATOM
      1 C1           0.0060     0.0170    -0.0160 ce         1 CVI       0.313600
      2 C2           1.2580     0.7070    -0.0770 cd         1 CVI      -0.222000
      3 C3           2.3640     0.1740    -0.7740 cd         1 CVI      -0.053333
      4 C4           3.5640     0.8290    -0.8440 cc         1 CVI      -0.379600
      5 C5           3.7570     2.0720    -0.1870 cc         1 CVI       0.419567
      6 C6           2.6510     2.6110     0.5190 cc         1 CVI      -0.379600
      7 C7           1.4500     1.9530     0.5570 cd         1 CVI      -0.053333
      8 C8          -1.2200     0.7540     0.0530 ca         1 CVI      -0.233800
      9 C9          -2.3420     0.2560     0.7500 ca         1 CVI       0.014667
     10 C10         -3.5180     0.9530     0.8260 ca         1 CVI      -0.225000
     11 C11         -3.6680     2.2050     0.1770 ca         1 CVI       0.411667
     12 C12         -2.5440     2.7110    -0.5250 ca         1 CVI      -0.225000
     13 C13         -1.3670     2.0110    -0.5710 ca         1 CVI       0.014667
     14 C14         -0.0240    -1.4160    -0.0200 ca         1 CVI      -0.233800
     15 C15         -1.0840    -2.1330    -0.6140 ca         1 CVI       0.014667
     16 C16         -1.1220    -3.5020    -0.6220 ca         1 CVI      -0.225000
     17 C17         -0.1030    -4.2640     0.0050 ca         1 CVI       0.411667
     18 C18          0.9640    -3.5490     0.6060 ca         1 CVI      -0.225000
     19 C19          1.0000    -2.1800     0.5780 ca         1 CVI       0.014667
     20 C20          6.0700     2.1140    -0.9110 c3         1 CVI       0.050900
     21 C21          5.0920     4.0130     0.3870 c3         1 CVI       0.050900
     22 C22         -5.9790     2.3180     0.9000 c3         1 CVI       0.199100
     23 C23         -4.9390     4.1920    -0.3860 c3         1 CVI       0.199100
     24 C24         -1.2560    -6.3140    -0.5840 c3         1 CVI       0.199100
     25 C25          0.9160    -6.3670     0.6540 c3         1 CVI       0.199100
     26 N1           4.9380     2.7110    -0.2310 nh         1 CVI      -0.318700
     27 N2          -4.8270     2.8830     0.2260 nh         1 CVI      -0.780400
     28 N3          -0.1490    -5.6070     0.0290 nh         1 CVI      -0.780400
     29 H31          2.2520    -0.7530    -1.3210 ha         1 CVI       0.194667
     30 H41          4.3570     0.3850    -1.4280 ha         1 CVI       0.200000
     31 H61          2.7450     3.5410     1.0600 ha         1 CVI       0.200000
     32 H71          0.6460     2.3850     1.1390 ha         1 CVI       0.194667
     33 H91         -2.2630    -0.6770     1.2910 ha         1 CVI       0.126667
     34 H101        -4.3250     0.5340     1.4090 ha         1 CVI       0.132000
     35 H121        -2.6050     3.6490    -1.0580 ha         1 CVI       0.132000
     36 H131        -0.5480     2.4180    -1.1490 ha         1 CVI       0.126667
     37 H151        -1.8700    -1.5930    -1.1260 ha         1 CVI       0.126667
     38 H161        -1.9430    -3.9900    -1.1270 ha         1 CVI       0.132000
     39 H181         1.7610    -4.0740     1.1120 ha         1 CVI       0.132000
     40 H191         1.8170    -1.6770     1.0790 ha         1 CVI       0.126667
     41 H201         6.9510     2.7270    -0.7470 h1         1 CVI       0.055422
     42 H202         6.2830     1.1150    -0.5290 h1         1 CVI       0.055422
     43 H203         5.9080     2.0420    -1.9900 h1         1 CVI       0.055422
     44 H211         4.3850     4.7370    -0.0210 h1         1 CVI       0.055422
     45 H212         4.9520     3.9690     1.4690 h1         1 CVI       0.055422
     46 H213         6.0940     4.3830     0.1950 h1         1 CVI       0.055422
     47 H221        -6.2210     1.3270     0.5110 h1         1 CVI       0.055422
     48 H222        -5.8220     2.2350     1.9780 h1         1 CVI       0.055422
     49 H223        -6.8400     2.9580     0.7350 h1         1 CVI       0.055422
     50 H231        -4.7930     4.1500    -1.4680 h1         1 CVI       0.055422
     51 H232        -5.9320     4.5900    -0.2000 h1         1 CVI       0.055422
     52 H233        -4.2150     4.8950     0.0310 h1         1 CVI       0.055422
     53 H241        -2.2130    -6.0140    -0.1540 h1         1 CVI       0.055422
     54 H242        -1.2960    -6.1490    -1.6630 h1         1 CVI       0.055422
     55 H243        -1.1360    -7.3800    -0.4130 h1         1 CVI       0.055422
     56 H251         1.0190    -6.1200     1.7120 h1         1 CVI       0.055422
     57 H252         0.6890    -7.4260     0.5800 h1         1 CVI       0.055422
     58 H253         1.8780    -6.1960     0.1660 h1         1 CVI       0.055422
@<TRIPOS>BOND
     1     1     2 2   
     2     1     8 1   
     3     1    14 1   
     4     2     3 1   
     5     2     7 1   
     6     3     4 2   
     7     3    29 1   
     8     4     5 1   
     9     4    30 1   
    10     5     6 1   
    11     5    26 2   
    12     6     7 2   
    13     6    31 1   
    14     7    32 1   
    15     8     9 ar  
    16     8    13 ar  
    17     9    10 ar  
    18     9    33 1   
    19    10    11 ar  
    20    10    34 1   
    21    11    12 ar  
    22    11    27 1   
    23    12    13 ar  
    24    12    35 1   
    25    13    36 1   
    26    14    15 ar  
    27    14    19 ar  
    28    15    16 ar  
    29    15    37 1   
    30    16    17 ar  
    31    16    38 1   
    32    17    18 ar  
    33    17    28 1   
    34    18    19 ar  
    35    18    39 1   
    36    19    40 1   
    37    20    26 1   
    38    20    41 1   
    39    20    42 1   
    40    20    43 1   
    41    21    26 1   
    42    21    44 1   
    43    21    45 1   
    44    21    46 1   
    45    22    27 1   
    46    22    47 1   
    47    22    48 1   
    48    22    49 1   
    49    23    27 1   
    50    23    50 1   
    51    23    51 1   
    52    23    52 1   
    53    24    28 1   
    54    24    53 1   
    55    24    54 1   
    56    24    55 1   
    57    25    28 1   
    58    25    56 1   
    59    25    57 1   
    60    25    58 1   
@<TRIPOS>SUBSTRUCTURE
     1 CVI         1 TEMP              0 ****  ****    0 ROOT
