@<TRIPOS>MOLECULE
CVI
   58    60     1     0     0
SMALL
No Charge or Current Charge


@<TRIPOS>ATOM
      1 C1           0.0720     0.0460    -0.0040 ce         1 CVI       0.313600
      2 C2           1.2760     0.7090    -0.0610 cd         1 CVI      -0.222000
      3 C3           2.0800     0.6110    -1.2500 cd         1 CVI      -0.053333
      4 C4           3.2840     1.2820    -1.2900 cc         1 CVI      -0.379600
      5 C5           3.7410     2.0660    -0.1780 cc         1 CVI       0.419567
      6 C6           2.9170     2.1450     0.9940 cc         1 CVI      -0.379600
      7 C7           1.7070     1.4870     1.0690 cd         1 CVI      -0.053333
      8 C8          -1.2290     0.7830    -0.0010 ca         1 CVI      -0.233800
      9 C9          -2.3160     0.3360     0.7770 ca         1 CVI       0.014667
     10 C10         -3.5250     1.0500     0.7790 ca         1 CVI      -0.225000
     11 C11         -3.6710     2.2230     0.0170 ca         1 CVI       0.411667
     12 C12         -2.5790     2.6720    -0.7450 ca         1 CVI      -0.225000
     13 C13         -1.3660     1.9640    -0.7540 ca         1 CVI       0.014667
     14 C14          0.0010    -1.4460     0.0580 ca         1 CVI      -0.233800
     15 C15         -1.0090    -2.1550    -0.6210 ca         1 CVI       0.014667
     16 C16         -1.0500    -3.5580    -0.5630 ca         1 CVI      -0.225000
     17 C17         -0.0840    -4.2780     0.1600 ca         1 CVI       0.411667
     18 C18          0.9320    -3.5670     0.8230 ca         1 CVI      -0.225000
     19 C19          0.9790    -2.1640     0.7720 ca         1 CVI       0.014667
     20 C20          6.0340     2.3300    -1.1640 c3         1 CVI       0.050900
     21 C21          5.2540     3.9000     0.6260 c3         1 CVI       0.050900
     22 C22         -6.1920     2.2540     0.2280 c3         1 CVI       0.199100
     23 C23         -4.9290     4.4100    -0.1790 c3         1 CVI       0.199100
     24 C24         -1.4130    -6.4300     0.1300 c3         1 CVI       0.199100
     25 C25          1.1060    -6.5030     0.3600 c3         1 CVI       0.199100
     26 N1           4.9590     2.7380    -0.2360 nh         1 CVI      -0.318700
     27 N2          -4.8930     2.9400     0.0220 nh         1 CVI      -0.780400
     28 N3          -0.1290    -5.6940     0.2150 nh         1 CVI      -0.780400
     29 H31          1.7430     0.0200    -2.1010 ha         1 CVI       0.194667
     30 H41          3.8930     1.2270    -2.1850 ha         1 CVI       0.200000
     31 H61          3.2590     2.7250     1.8440 ha         1 CVI       0.200000
     32 H71          1.0920     1.5540     1.9650 ha         1 CVI       0.194667
     33 H91         -2.2250    -0.5580     1.3910 ha         1 CVI       0.126667
     34 H101        -4.3440     0.6920     1.3930 ha         1 CVI       0.132000
     35 H121        -2.6650     3.5700    -1.3480 ha         1 CVI       0.132000
     36 H131        -0.5360     2.3320    -1.3540 ha         1 CVI       0.126667
     37 H151        -1.7600    -1.6240    -1.2040 ha         1 CVI       0.126667
     38 H161        -1.8330    -4.0820    -1.1020 ha         1 CVI       0.132000
     39 H181         1.6870    -4.0960     1.3950 ha         1 CVI       0.132000
     40 H191         1.7750    -1.6370     1.2960 ha         1 CVI       0.126667
     41 H201         7.0100     2.6950    -0.8190 h1         1 CVI       0.055422
     42 H202         6.0900     1.2350    -1.2310 h1         1 CVI       0.055422
     43 H203         5.8450     2.7360    -2.1660 h1         1 CVI       0.055422
     44 H211         4.3660     4.5350     0.7320 h1         1 CVI       0.055422
     45 H212         5.5700     3.5630     1.6220 h1         1 CVI       0.055422
     46 H213         6.0560     4.5140     0.1970 h1         1 CVI       0.055422
     47 H221        -6.1780     1.2530    -0.2230 h1         1 CVI       0.055422
     48 H222        -6.4110     2.1540     1.3000 h1         1 CVI       0.055422
     49 H223        -7.0110     2.8150    -0.2420 h1         1 CVI       0.055422
     50 H231        -4.9510     4.6530    -1.2490 h1         1 CVI       0.055422
     51 H232        -5.8180     4.8480     0.2950 h1         1 CVI       0.055422
     52 H233        -4.0480     4.8850     0.2730 h1         1 CVI       0.055422
     53 H241        -2.2180    -5.8650     0.6180 h1         1 CVI       0.055422
     54 H242        -1.6910    -6.6050    -0.9180 h1         1 CVI       0.055422
     55 H243        -1.3420    -7.4030     0.6360 h1         1 CVI       0.055422
     56 H251         1.3770    -6.6090     1.4190 h1         1 CVI       0.055422
     57 H252         0.9690    -7.5060    -0.0650 h1         1 CVI       0.055422
     58 H253         1.9440    -6.0320    -0.1730 h1         1 CVI       0.055422
@<TRIPOS>BOND
     1     1     2 2   
     2     1     8 1   
     3     1    14 1   
     4     2     3 1   
     5     2     7 1   
     6     3     4 2   
     7     3    29 1   
     8     4     5 1   
     9     4    30 1   
    10     5     6 1   
    11     5    26 2   
    12     6     7 2   
    13     6    31 1   
    14     7    32 1   
    15     8     9 ar  
    16     8    13 ar  
    17     9    10 ar  
    18     9    33 1   
    19    10    11 ar  
    20    10    34 1   
    21    11    12 ar  
    22    11    27 1   
    23    12    13 ar  
    24    12    35 1   
    25    13    36 1   
    26    14    15 ar  
    27    14    19 ar  
    28    15    16 ar  
    29    15    37 1   
    30    16    17 ar  
    31    16    38 1   
    32    17    18 ar  
    33    17    28 1   
    34    18    19 ar  
    35    18    39 1   
    36    19    40 1   
    37    20    26 1   
    38    20    41 1   
    39    20    42 1   
    40    20    43 1   
    41    21    26 1   
    42    21    44 1   
    43    21    45 1   
    44    21    46 1   
    45    22    27 1   
    46    22    47 1   
    47    22    48 1   
    48    22    49 1   
    49    23    27 1   
    50    23    50 1   
    51    23    51 1   
    52    23    52 1   
    53    24    28 1   
    54    24    53 1   
    55    24    54 1   
    56    24    55 1   
    57    25    28 1   
    58    25    56 1   
    59    25    57 1   
    60    25    58 1   
@<TRIPOS>SUBSTRUCTURE
     1 CVI         1 TEMP              0 ****  ****    0 ROOT
