@<TRIPOS>MOLECULE
CVJ
   48    50     1     0     0
SMALL
bcc


@<TRIPOS>ATOM
      1 C1          -1.0470     0.0430     1.6100 ca         1 CVJ      -0.171000
      2 C2          -0.3520    -0.0260     0.4020 ca         1 CVJ       0.079600
      3 C3          -1.0220     0.3100    -0.7760 ca         1 CVJ      -0.171000
      4 C11         -6.5350     0.0100    -0.2860 c          1 CVJ       0.665100
      5 C12         -7.2680    -1.3160    -0.2510 c3         1 CVJ      -0.157400
      6 C14         -8.3020    -1.4590    -1.3560 c3         1 CVJ      -0.076100
      7 C15          1.8370    -0.7470    -0.5380 c          1 CVJ       0.707100
      8 C16          3.2100    -1.0890    -0.0760 cx         1 CVJ      -0.239700
      9 C18          4.3630    -0.6960    -0.9800 cx         1 CVJ      -0.043400
     10 C19          5.6070    -0.1410    -0.4010 ca         1 CVJ      -0.172600
     11 C20          6.2520     0.9260    -1.0170 ca         1 CVJ      -0.081000
     12 C21          7.4130     1.4380    -0.4610 ca         1 CVJ      -0.243300
     13 C22          7.8970     0.8640     0.7050 ca         1 CVJ       0.402200
     14 C24          6.1870    -0.6390     0.7650 ca         1 CVJ       0.401200
     15 C25          3.9800    -2.1290    -0.8320 cx         1 CVJ      -0.082400
     16 C4          -2.3500     0.7040    -0.7190 ca         1 CVJ      -0.087500
     17 C5          -3.0500     0.7810     0.4800 ca         1 CVJ      -0.131300
     18 C6          -2.3720     0.4400     1.6460 ca         1 CVJ      -0.087500
     19 C7          -4.5050     1.1900     0.4800 c3         1 CVJ       0.167000
     20 N8           0.9920    -0.4050     0.4670 ns         1 CVJ      -0.467100
     21 N9          -5.3230    -0.0010     0.2970 ns         1 CVJ      -0.577900
     22 C10         -4.9260     1.9760     1.7170 c3         1 CVJ      -0.107100
     23 O13         -7.0180     1.0140    -0.7910 o          1 CVJ      -0.607100
     24 O17          1.5230    -0.7730    -1.7160 o          1 CVJ      -0.584100
     25 N23          7.2960    -0.1560     1.3080 nb         1 CVJ      -0.664000
     26 H1          -0.5440    -0.2140     2.5350 ha         1 CVJ       0.147500
     27 H2          -0.5210     0.2760    -1.7300 ha         1 CVJ       0.147500
     28 H3          -6.5520    -2.1400    -0.2880 hc         1 CVJ       0.053200
     29 H4          -7.7550    -1.3880     0.7270 hc         1 CVJ       0.053200
     30 H5          -9.0490    -0.6690    -1.3080 hc         1 CVJ       0.042033
     31 H6          -7.8390    -1.4250    -2.3420 hc         1 CVJ       0.042033
     32 H7          -8.8190    -2.4140    -1.2660 hc         1 CVJ       0.042033
     33 H8           3.3970    -1.0230     0.9910 hc         1 CVJ       0.089700
     34 H9           4.0640    -0.2300    -1.9130 hc         1 CVJ       0.104700
     35 H10          5.8480     1.3550    -1.9260 ha         1 CVJ       0.140000
     36 H11          7.9350     2.2660    -0.9210 ha         1 CVJ       0.144000
     37 H12          8.8010     1.2400     1.1690 h4         1 CVJ       0.021100
     38 H13          5.7320    -1.4730     1.2920 h4         1 CVJ       0.014100
     39 H14          4.6220    -2.7800    -0.2530 hc         1 CVJ       0.087700
     40 H15          3.4900    -2.6030    -1.6720 hc         1 CVJ       0.087700
     41 H16         -2.8490     0.9650    -1.6450 ha         1 CVJ       0.135500
     42 H17         -2.8710     0.4850     2.6050 ha         1 CVJ       0.135500
     43 H18         -4.6690     1.8250    -0.3940 h1         1 CVJ       0.079700
     44 H19          1.3640    -0.4740     1.4020 hn         1 CVJ       0.318500
     45 H20         -5.0000    -0.8560     0.7210 hn         1 CVJ       0.311500
     46 H21         -4.8850     1.3670     2.6210 hc         1 CVJ       0.043367
     47 H22         -4.2850     2.8450     1.8610 hc         1 CVJ       0.043367
     48 H23         -5.9510     2.3290     1.6050 hc         1 CVJ       0.043367
@<TRIPOS>BOND
     1     1     2 ar  
     2     1    18 ar  
     3     1    26 1   
     4     2     3 ar  
     5     2    20 1   
     6     3    16 ar  
     7     3    27 1   
     8     4     5 1   
     9     4    21 1   
    10     4    23 2   
    11     5     6 1   
    12     5    28 1   
    13     5    29 1   
    14     6    30 1   
    15     6    31 1   
    16     6    32 1   
    17     7     8 1   
    18     7    20 1   
    19     7    24 2   
    20     8     9 1   
    21     8    15 1   
    22     8    33 1   
    23     9    10 1   
    24     9    15 1   
    25     9    34 1   
    26    10    11 ar  
    27    10    14 ar  
    28    11    12 ar  
    29    11    35 1   
    30    12    13 ar  
    31    12    36 1   
    32    13    25 ar  
    33    13    37 1   
    34    14    25 ar  
    35    14    38 1   
    36    15    39 1   
    37    15    40 1   
    38    16    17 ar  
    39    16    41 1   
    40    17    18 ar  
    41    17    19 1   
    42    18    42 1   
    43    19    21 1   
    44    19    22 1   
    45    19    43 1   
    46    20    44 1   
    47    21    45 1   
    48    22    46 1   
    49    22    47 1   
    50    22    48 1   
@<TRIPOS>SUBSTRUCTURE
     1 CVJ         1 TEMP              0 ****  ****    0 ROOT
