@<TRIPOS>MOLECULE
CVJ
   48    50     1     0     0
SMALL
No Charge or Current Charge


@<TRIPOS>ATOM
      1 C1          -1.3610    -0.0830     1.6230 ca         1 CVJ      -0.153000
      2 C2          -0.5230     0.4560     0.6290 ca         1 CVJ      -0.013000
      3 C3          -1.1010     1.2290    -0.4000 ca         1 CVJ      -0.153000
      4 C11         -6.7960    -0.1670    -0.2760 c          1 CVJ       0.598100
      5 C12         -7.3250    -1.5960    -0.4380 c3         1 CVJ      -0.157400
      6 C14         -7.3310    -2.0370    -1.9170 c3         1 CVJ      -0.076100
      7 C15          1.9540     0.5730    -0.0490 c          1 CVJ       0.640100
      8 C16          3.2680     0.0070     0.4380 cx         1 CVJ      -0.239700
      9 C18          4.2260    -0.5920    -0.5760 cx         1 CVJ      -0.043400
     10 C19          5.7180    -0.3790    -0.4850 ca         1 CVJ      -0.107300
     11 C20          6.4760    -0.2020    -1.6590 ca         1 CVJ      -0.063000
     12 C21          7.8610    -0.0040    -1.5410 ca         1 CVJ      -0.160000
     13 C22          8.4480     0.0110    -0.2660 ca         1 CVJ       0.336900
     14 C24          6.3980    -0.3470     0.7550 ca         1 CVJ       0.335900
     15 C25          3.4800    -1.4930     0.3840 cx         1 CVJ      -0.082400
     16 C4          -2.4880     1.4590    -0.4260 ca         1 CVJ      -0.069500
     17 C5          -3.3220     0.9240     0.5740 ca         1 CVJ      -0.131300
     18 C6          -2.7470     0.1460     1.5990 ca         1 CVJ      -0.069500
     19 C7          -4.8270     1.1770     0.5300 c3         1 CVJ       0.167000
     20 N8           0.8690     0.1790     0.7200 ns         1 CVJ      -0.141000
     21 N9          -5.5330    -0.0730     0.2610 ns         1 CVJ      -0.510900
     22 C10         -5.3480     1.8490     1.8180 c3         1 CVJ      -0.107100
     23 O13         -7.4560     0.8170    -0.5770 o          1 CVJ      -0.607100
     24 O17          1.8960     1.3130    -1.0240 o          1 CVJ      -0.584100
     25 N23          7.7340    -0.1570     0.8710 nb         1 CVJ      -0.664000
     26 H1          -0.9370    -0.6860     2.4230 ha         1 CVJ       0.129500
     27 H2          -0.4970     1.6600    -1.1920 ha         1 CVJ       0.129500
     28 H3          -6.6980    -2.2980     0.1260 hc         1 CVJ       0.053200
     29 H4          -8.3540    -1.6370    -0.0630 hc         1 CVJ       0.053200
     30 H5          -7.9690    -1.3770    -2.5180 hc         1 CVJ       0.042033
     31 H6          -6.3160    -2.0080    -2.3340 hc         1 CVJ       0.042033
     32 H7          -7.7120    -3.0610    -2.0110 hc         1 CVJ       0.042033
     33 H8           3.7010     0.5370     1.2820 hc         1 CVJ       0.089700
     34 H9           3.8810    -0.6220    -1.6090 hc         1 CVJ       0.104700
     35 H10          6.0050    -0.2160    -2.6400 ha         1 CVJ       0.122000
     36 H11          8.4790     0.1360    -2.4240 ha         1 CVJ       0.126000
     37 H12          9.5200     0.1620    -0.1490 h4         1 CVJ       0.021100
     38 H13          5.8590    -0.4770     1.6930 h4         1 CVJ       0.014100
     39 H14          4.0370    -1.9590     1.1940 hc         1 CVJ       0.087700
     40 H15          2.6870    -2.1150    -0.0270 hc         1 CVJ       0.087700
     41 H16         -2.9130     2.0570    -1.2290 ha         1 CVJ       0.117500
     42 H17         -3.3710    -0.2860     2.3770 ha         1 CVJ       0.117500
     43 H18         -5.0340     1.8630    -0.3040 h1         1 CVJ       0.079700
     44 H19          1.1150    -0.4250     1.4930 hn         1 CVJ       0.152000
     45 H20         -5.0600    -0.9420     0.4710 hn         1 CVJ       0.311500
     46 H21         -5.2380     1.1870     2.6850 hc         1 CVJ       0.043367
     47 H22         -4.7930     2.7730     2.0170 hc         1 CVJ       0.043367
     48 H23         -6.4090     2.1070     1.7190 hc         1 CVJ       0.043367
@<TRIPOS>BOND
     1     1     2 ar  
     2     1    18 ar  
     3     1    26 1   
     4     2     3 ar  
     5     2    20 1   
     6     3    16 ar  
     7     3    27 1   
     8     4     5 1   
     9     4    21 1   
    10     4    23 2   
    11     5     6 1   
    12     5    28 1   
    13     5    29 1   
    14     6    30 1   
    15     6    31 1   
    16     6    32 1   
    17     7     8 1   
    18     7    20 1   
    19     7    24 2   
    20     8     9 1   
    21     8    15 1   
    22     8    33 1   
    23     9    10 1   
    24     9    15 1   
    25     9    34 1   
    26    10    11 ar  
    27    10    14 ar  
    28    11    12 ar  
    29    11    35 1   
    30    12    13 ar  
    31    12    36 1   
    32    13    25 ar  
    33    13    37 1   
    34    14    25 ar  
    35    14    38 1   
    36    15    39 1   
    37    15    40 1   
    38    16    17 ar  
    39    16    41 1   
    40    17    18 ar  
    41    17    19 1   
    42    18    42 1   
    43    19    21 1   
    44    19    22 1   
    45    19    43 1   
    46    20    44 1   
    47    21    45 1   
    48    22    46 1   
    49    22    47 1   
    50    22    48 1   
@<TRIPOS>SUBSTRUCTURE
     1 CVJ         1 TEMP              0 ****  ****    0 ROOT
