@<TRIPOS>MOLECULE
CVK
   55    58     1     0     0
SMALL
bcc


@<TRIPOS>ATOM
      1 C29         73.0500    99.7550    22.0720 c3         1 CVK       0.128700
      2 O28         72.7410   101.0720    21.6630 os         1 CVK      -0.332900
      3 C15         72.3350   101.2760    20.3910 ca         1 CVK       0.077100
      4 C14         72.1400   102.6300    20.0360 ca         1 CVK       0.162600
      5 N17         72.4000   103.5920    20.9960 nu         1 CVK      -0.647000
      6 C18         72.0760   104.9400    20.9570 ca         1 CVK       0.177600
      7 C23         70.8820   105.4170    20.4070 ca         1 CVK      -0.174000
      8 C22         70.6020   106.7740    20.4450 ca         1 CVK      -0.100000
      9 C21         71.4810   107.6730    21.0320 ca         1 CVK      -0.156000
     10 C20         72.6690   107.2120    21.5980 ca         1 CVK      -0.087300
     11 C24         73.6710   108.1760    22.1970 c3         1 CVK       0.217100
     12 N25         74.6640   108.7050    21.2760 n3         1 CVK      -0.726600
     13 C27         74.1100   109.5360    20.2320 c3         1 CVK       0.157600
     14 C26         75.5690   107.7080    20.7530 c3         1 CVK       0.157600
     15 C19         72.9500   105.8530    21.5530 ca         1 CVK      -0.183000
     16 C13         71.7330   102.9090    18.7370 ca         1 CVK      -0.168000
     17 C12         71.4980   101.8890    17.8220 ca         1 CVK      -0.114000
     18 C16         72.1240   100.2680    19.4680 ca         1 CVK      -0.151000
     19 C11         71.6930   100.5600    18.1690 cp         1 CVK      -0.031000
     20 C4          71.4090    99.4850    17.1950 cp         1 CVK      -0.025000
     21 C1          70.1760    99.4360    16.5470 ca         1 CVK      -0.121000
     22 C5          72.3700    98.5170    16.8850 ca         1 CVK       0.064100
     23 O10         73.5770    98.5850    17.4960 os         1 CVK      -0.301900
     24 C9          74.3500    97.3990    17.4060 c6         1 CVK       0.092400
     25 C8          74.3340    96.8810    15.9890 c6         1 CVK       0.095400
     26 O7          73.0040    96.5840    15.5970 os         1 CVK      -0.308900
     27 C6          72.0880    97.5220    15.9420 ca         1 CVK       0.055100
     28 C3          70.8470    97.4830    15.3210 ca         1 CVK      -0.124000
     29 C2          69.8910    98.4390    15.6270 ca         1 CVK      -0.129000
     30 H1          73.3870    99.8220    23.1030 h1         1 CVK       0.040033
     31 H2          72.1770    99.1000    22.0300 h1         1 CVK       0.040033
     32 H3          73.8490    99.3190    21.4660 h1         1 CVK       0.040033
     33 H4          73.0940   103.3410    21.6830 hn         1 CVK       0.445800
     34 H5          70.1610   104.7360    19.9760 ha         1 CVK       0.141000
     35 H6          69.6710   107.1290    20.0220 ha         1 CVK       0.129000
     36 H7          71.2380   108.7290    21.0610 ha         1 CVK       0.130000
     37 H8          74.2050   107.6800    23.0130 h1         1 CVK       0.056200
     38 H9          73.1370   109.0230    22.6360 h1         1 CVK       0.056200
     39 H11         73.4810   110.3140    20.6680 h1         1 CVK       0.030533
     40 H12         74.9200   110.0280    19.6900 h1         1 CVK       0.030533
     41 H13         73.5030   108.9920    19.4950 h1         1 CVK       0.030533
     42 H14         76.0170   107.1410    21.5710 h1         1 CVK       0.030533
     43 H15         75.1010   106.9880    20.0650 h1         1 CVK       0.030533
     44 H16         76.3760   108.2010    20.2080 h1         1 CVK       0.030533
     45 H17         73.8730   105.4850    21.9910 ha         1 CVK       0.128000
     46 H18         71.6110   103.9330    18.4160 ha         1 CVK       0.143000
     47 H19         71.1860   102.1480    16.8190 ha         1 CVK       0.135000
     48 H20         72.2660    99.2350    19.7530 ha         1 CVK       0.140000
     49 H21         69.4250   100.1770    16.7910 ha         1 CVK       0.139000
     50 H22         73.9610    96.6410    18.0940 h1         1 CVK       0.065700
     51 H23         75.3650    97.6530    17.7100 h1         1 CVK       0.065700
     52 H24         74.9080    95.9590    15.9120 h1         1 CVK       0.066700
     53 H25         74.7730    97.6180    15.3090 h1         1 CVK       0.066700
     54 H26         70.6440    96.7020    14.6000 ha         1 CVK       0.146000
     55 H27         68.9250    98.4070    15.1420 ha         1 CVK       0.137000
@<TRIPOS>BOND
     1     1     2 1   
     2     1    30 1   
     3     1    31 1   
     4     1    32 1   
     5     2     3 1   
     6     3     4 ar  
     7     3    18 ar  
     8     4     5 1   
     9     4    16 ar  
    10     5     6 1   
    11     5    33 1   
    12     6     7 ar  
    13     6    15 ar  
    14     7     8 ar  
    15     7    34 1   
    16     8     9 ar  
    17     8    35 1   
    18     9    10 ar  
    19     9    36 1   
    20    10    11 1   
    21    10    15 ar  
    22    11    12 1   
    23    11    37 1   
    24    11    38 1   
    25    12    13 1   
    26    12    14 1   
    27    13    39 1   
    28    13    40 1   
    29    13    41 1   
    30    14    42 1   
    31    14    43 1   
    32    14    44 1   
    33    15    45 1   
    34    16    17 ar  
    35    16    46 1   
    36    17    19 ar  
    37    17    47 1   
    38    18    19 ar  
    39    18    48 1   
    40    19    20 1   
    41    20    21 ar  
    42    20    22 ar  
    43    21    29 ar  
    44    21    49 1   
    45    22    23 1   
    46    22    27 ar  
    47    23    24 1   
    48    24    25 1   
    49    24    50 1   
    50    24    51 1   
    51    25    26 1   
    52    25    52 1   
    53    25    53 1   
    54    26    27 1   
    55    27    28 ar  
    56    28    29 ar  
    57    28    54 1   
    58    29    55 1   
@<TRIPOS>SUBSTRUCTURE
     1 CVK         1 TEMP              0 ****  ****    0 ROOT
