@<TRIPOS>MOLECULE
CVK
   55    58     1     0     0
SMALL
No Charge or Current Charge


@<TRIPOS>ATOM
      1 C29         73.2980    99.7420    21.9850 c3         1 CVK       0.151900
      2 O28         73.0260   101.0710    21.5040 os         1 CVK      -0.356100
      3 C15         72.5190   101.3160    20.2330 ca         1 CVK       0.077100
      4 C14         72.2930   102.6610    19.8360 ca         1 CVK       0.301000
      5 N17         72.5990   103.7080    20.7220 nu         1 CVK      -0.979000
      6 C18         72.2050   105.0430    20.8280 ca         1 CVK       0.316000
      7 C23         70.9720   105.4940    20.3240 ca         1 CVK      -0.156000
      8 C22         70.5960   106.8400    20.4690 ca         1 CVK      -0.082000
      9 C21         71.4510   107.7400    21.1260 ca         1 CVK      -0.138000
     10 C20         72.6840   107.3000    21.6470 ca         1 CVK      -0.087300
     11 C24         73.6090   108.2760    22.3790 c3         1 CVK       0.217100
     12 N25         74.5980   108.9650    21.5060 n3         1 CVK      -0.726600
     13 C27         73.9830   109.8750    20.5150 c3         1 CVK       0.157600
     14 C26         75.5960   108.0520    20.9040 c3         1 CVK       0.157600
     15 C19         73.0440   105.9440    21.5030 ca         1 CVK      -0.165000
     16 C13         71.8120   102.9250    18.5410 ca         1 CVK      -0.150000
     17 C12         71.5240   101.8720    17.6580 ca         1 CVK      -0.096000
     18 C16         72.2220   100.2630    19.3360 ca         1 CVK      -0.133000
     19 C11         71.7240   100.5240    18.0360 cp         1 CVK      -0.031000
     20 C4          71.3990    99.4130    17.0850 cp         1 CVK      -0.025000
     21 C1          70.1640    99.4220    16.3900 ca         1 CVK      -0.103000
     22 C5          72.2850    98.3270    16.8410 ca         1 CVK       0.064100
     23 O10         73.5050    98.2990    17.4930 os         1 CVK      -0.325100
     24 C9          74.2220    97.0470    17.5110 c6         1 CVK       0.115600
     25 C8          74.1810    96.4060    16.1080 c6         1 CVK       0.118600
     26 O7          72.8100    96.2520    15.6780 os         1 CVK      -0.332100
     27 C6          71.9400    97.2950    15.9310 ca         1 CVK       0.055100
     28 C3          70.7010    97.3240    15.2750 ca         1 CVK      -0.106000
     29 C2          69.8150    98.3900    15.5020 ca         1 CVK      -0.111000
     30 H1          73.6990    99.7820    23.0060 h1         1 CVK       0.040033
     31 H2          72.3810    99.1390    22.0050 h1         1 CVK       0.040033
     32 H3          74.0380    99.2400    21.3490 h1         1 CVK       0.040033
     33 H4          73.2040   103.3970    21.4840 hn         1 CVK       0.501000
     34 H5          70.2910   104.8010    19.8400 ha         1 CVK       0.123000
     35 H6          69.6410   107.1830    20.0780 ha         1 CVK       0.111000
     36 H7          71.1520   108.7800    21.2360 ha         1 CVK       0.112000
     37 H8          74.1360   107.7260    23.1710 h1         1 CVK       0.056200
     38 H9          72.9880   109.0230    22.8930 h1         1 CVK       0.056200
     39 H11         73.2970   110.5790    21.0050 h1         1 CVK       0.030533
     40 H12         74.7540   110.4610    19.9970 h1         1 CVK       0.030533
     41 H13         73.4180   109.3120    19.7590 h1         1 CVK       0.030533
     42 H14         76.0770   107.4360    21.6770 h1         1 CVK       0.030533
     43 H15         75.1270   107.3820    20.1710 h1         1 CVK       0.030533
     44 H16         76.3810   108.6220    20.3900 h1         1 CVK       0.030533
     45 H17         73.9900   105.5950    21.9090 ha         1 CVK       0.110000
     46 H18         71.6780   103.9480    18.2040 ha         1 CVK       0.125000
     47 H19         71.1550   102.1020    16.6600 ha         1 CVK       0.117000
     48 H20         72.3650    99.2290    19.6310 ha         1 CVK       0.122000
     49 H21         69.4600   100.2350    16.5560 ha         1 CVK       0.121000
     50 H22         73.7480    96.3730    18.2390 h1         1 CVK       0.065700
     51 H23         75.2590    97.2250    17.8280 h1         1 CVK       0.065700
     52 H24         74.6740    95.4240    16.1140 h1         1 CVK       0.066700
     53 H25         74.7090    97.0540    15.3940 h1         1 CVK       0.066700
     54 H26         70.4330    96.5280    14.5830 ha         1 CVK       0.128000
     55 H27         68.8560    98.4170    14.9880 ha         1 CVK       0.119000
@<TRIPOS>BOND
     1     1     2 1   
     2     1    30 1   
     3     1    31 1   
     4     1    32 1   
     5     2     3 1   
     6     3     4 ar  
     7     3    18 ar  
     8     4     5 1   
     9     4    16 ar  
    10     5     6 1   
    11     5    33 1   
    12     6     7 ar  
    13     6    15 ar  
    14     7     8 ar  
    15     7    34 1   
    16     8     9 ar  
    17     8    35 1   
    18     9    10 ar  
    19     9    36 1   
    20    10    11 1   
    21    10    15 ar  
    22    11    12 1   
    23    11    37 1   
    24    11    38 1   
    25    12    13 1   
    26    12    14 1   
    27    13    39 1   
    28    13    40 1   
    29    13    41 1   
    30    14    42 1   
    31    14    43 1   
    32    14    44 1   
    33    15    45 1   
    34    16    17 ar  
    35    16    46 1   
    36    17    19 ar  
    37    17    47 1   
    38    18    19 ar  
    39    18    48 1   
    40    19    20 1   
    41    20    21 ar  
    42    20    22 ar  
    43    21    29 ar  
    44    21    49 1   
    45    22    23 1   
    46    22    27 ar  
    47    23    24 1   
    48    24    25 1   
    49    24    50 1   
    50    24    51 1   
    51    25    26 1   
    52    25    52 1   
    53    25    53 1   
    54    26    27 1   
    55    27    28 ar  
    56    28    29 ar  
    57    28    54 1   
    58    29    55 1   
@<TRIPOS>SUBSTRUCTURE
     1 CVK         1 TEMP              0 ****  ****    0 ROOT
