@<TRIPOS>MOLECULE
CVL
   68    71     1     0     0
SMALL
bcc


@<TRIPOS>ATOM
      1 C1           3.3940    -5.6620    -0.1010 c3         1 CVL       0.120700
      2 O1           2.7400    -4.4100    -0.1620 os         1 CVL      -0.294900
      3 C2           3.4930    -3.3010    -0.1170 ca         1 CVL       0.128100
      4 C3           4.8730    -3.2750    -0.0350 ca         1 CVL      -0.200000
      5 C4           5.5590    -2.0630     0.0040 ca         1 CVL      -0.103000
      6 C5           4.8780    -0.8570    -0.0410 ca         1 CVL      -0.110900
      7 C6           5.5650     0.4330    -0.0190 ce         1 CVL       0.384900
      8 N1           4.9020     1.5200    -0.1650 n2         1 CVL      -0.432300
      9 N2           5.7560     2.5830    -0.0880 n          1 CVL      -0.252800
     10 C7           5.2230     3.9250    -0.2400 c3         1 CVL       0.142700
     11 C8           4.5780     4.0920    -1.6110 c3         1 CVL      -0.103600
     12 C9           4.2620     4.2550     0.8940 c3         1 CVL      -0.103600
     13 C10          7.0400     2.2210     0.1310 c          1 CVL       0.688500
     14 O2           7.9970     2.9610     0.2510 o          1 CVL      -0.597500
     15 C11          7.0370     0.6970     0.1860 c5         1 CVL      -0.205300
     16 C12          7.9280     0.1770    -0.9480 c3         1 CVL      -0.067100
     17 C13          7.5400     0.2390     1.5570 c3         1 CVL      -0.067100
     18 C14          3.4730    -0.8850    -0.1150 ca         1 CVL      -0.161000
     19 C15          2.7840    -2.0770    -0.1510 ca         1 CVL       0.109100
     20 O3           1.4450    -2.1900    -0.2150 os         1 CVL      -0.308900
     21 C16          0.6590    -1.0200    -0.0630 c3         1 CVL       0.140400
     22 C17         -0.7990    -1.4280    -0.0730 c3         1 CVL      -0.080400
     23 C18         -1.7050    -0.2220     0.1470 c3         1 CVL      -0.082400
     24 C19         -3.1620    -0.6240     0.0680 c3         1 CVL       0.141400
     25 O4          -3.9540     0.5300     0.3210 os         1 CVL      -0.318900
     26 C20         -5.2870     0.4330     0.2530 ca         1 CVL       0.175100
     27 C21         -6.0080     1.6050     0.5100 ca         1 CVL      -0.199000
     28 C22         -7.3840     1.6020     0.4560 ca         1 CVL      -0.052500
     29 C23         -8.0850     0.4340     0.1420 ca         1 CVL      -0.191500
     30 C24         -9.5360     0.4660     0.0860 cc         1 CVL       0.472000
     31 N3         -10.3520    -0.5580    -0.1840 na         1 CVL      -0.167400
     32 N4         -11.6060    -0.1390    -0.1450 nc         1 CVL      -0.206800
     33 N5         -11.5600     1.1010     0.1390 nd         1 CVL      -0.040000
     34 N6         -10.3050     1.5150     0.2890 nd         1 CVL      -0.395000
     35 C25         -7.3630    -0.7290    -0.1080 ca         1 CVL      -0.052500
     36 C26         -5.9780    -0.7390    -0.0540 ca         1 CVL      -0.199000
     37 H1           2.6160    -6.4200    -0.1490 h1         1 CVL       0.041700
     38 H2           4.0790    -5.8050    -0.9400 h1         1 CVL       0.041700
     39 H3           3.9490    -5.7840     0.8330 h1         1 CVL       0.041700
     40 H4           5.4450    -4.1920     0.0030 ha         1 CVL       0.140000
     41 H5           6.6360    -2.0960     0.0670 ha         1 CVL       0.135000
     42 H8           6.0880     4.5860    -0.1750 h1         1 CVL       0.074700
     43 H9           5.2920     3.8870    -2.4090 hc         1 CVL       0.044367
     44 H10          3.7260     3.4220    -1.7290 hc         1 CVL       0.044367
     45 H11          4.2230     5.1150    -1.7310 hc         1 CVL       0.044367
     46 H12          4.7530     4.1710     1.8630 hc         1 CVL       0.044367
     47 H13          3.8970     5.2760     0.7880 hc         1 CVL       0.044367
     48 H14          3.3990     3.5870     0.8860 hc         1 CVL       0.044367
     49 H15          8.9360     0.5730    -0.8260 hc         1 CVL       0.048700
     50 H16          7.9990    -0.9090    -0.9380 hc         1 CVL       0.048700
     51 H17          7.5560     0.4830    -1.9260 hc         1 CVL       0.048700
     52 H18          6.9300     0.6420     2.3660 hc         1 CVL       0.048700
     53 H19          7.5320    -0.8470     1.6380 hc         1 CVL       0.048700
     54 H20          8.5660     0.5780     1.7040 hc         1 CVL       0.048700
     55 H21          2.9360     0.0530    -0.1420 ha         1 CVL       0.155000
     56 H22          0.9130    -0.5190     0.8790 h1         1 CVL       0.036700
     57 H23          0.8570    -0.3110    -0.8760 h1         1 CVL       0.036700
     58 H24         -1.0360    -1.9020    -1.0290 hc         1 CVL       0.057700
     59 H25         -0.9750    -2.1710     0.7100 hc         1 CVL       0.057700
     60 H26         -1.5000     0.2210     1.1250 hc         1 CVL       0.059200
     61 H27         -1.4990     0.5430    -0.6060 hc         1 CVL       0.059200
     62 H28         -3.3900    -1.0280    -0.9240 h1         1 CVL       0.039200
     63 H29         -3.3850    -1.4030     0.8050 h1         1 CVL       0.039200
     64 H30         -5.4750     2.5150     0.7550 ha         1 CVL       0.148000
     65 H31         -7.9230     2.5180     0.6590 ha         1 CVL       0.142500
     66 H32        -10.1460    -1.5250    -0.3910 hn         1 CVL       0.333700
     67 H33         -7.8630    -1.6560    -0.3560 ha         1 CVL       0.142500
     68 H34         -5.4600    -1.6660    -0.2560 ha         1 CVL       0.148000
@<TRIPOS>BOND
     1     1     2 1   
     2     1    37 1   
     3     1    38 1   
     4     1    39 1   
     5     2     3 1   
     6     3     4 ar  
     7     3    19 ar  
     8     4     5 ar  
     9     4    40 1   
    10     5     6 ar  
    11     5    41 1   
    12     6     7 1   
    13     6    18 ar  
    14     7     8 2   
    15     7    15 1   
    16     8     9 1   
    17     9    10 1   
    18     9    13 1   
    19    10    11 1   
    20    10    12 1   
    21    10    42 1   
    22    11    43 1   
    23    11    44 1   
    24    11    45 1   
    25    12    46 1   
    26    12    47 1   
    27    12    48 1   
    28    13    14 2   
    29    13    15 1   
    30    15    16 1   
    31    15    17 1   
    32    16    49 1   
    33    16    50 1   
    34    16    51 1   
    35    17    52 1   
    36    17    53 1   
    37    17    54 1   
    38    18    19 ar  
    39    18    55 1   
    40    19    20 1   
    41    20    21 1   
    42    21    22 1   
    43    21    56 1   
    44    21    57 1   
    45    22    23 1   
    46    22    58 1   
    47    22    59 1   
    48    23    24 1   
    49    23    60 1   
    50    23    61 1   
    51    24    25 1   
    52    24    62 1   
    53    24    63 1   
    54    25    26 1   
    55    26    27 ar  
    56    26    36 ar  
    57    27    28 ar  
    58    27    64 1   
    59    28    29 ar  
    60    28    65 1   
    61    29    30 1   
    62    29    35 ar  
    63    30    31 1   
    64    30    34 2   
    65    31    32 1   
    66    31    66 1   
    67    32    33 2   
    68    33    34 1   
    69    35    36 ar  
    70    35    67 1   
    71    36    68 1   
@<TRIPOS>SUBSTRUCTURE
     1 CVL         1 TEMP              0 ****  ****    0 ROOT
