@<TRIPOS>MOLECULE
CVL
   68    71     1     0     0
SMALL
No Charge or Current Charge


@<TRIPOS>ATOM
      1 C1           3.4560    -5.8430     0.0900 c3         1 CVL       0.143900
      2 O1           2.8120    -4.5570     0.0620 os         1 CVL      -0.318100
      3 C2           3.5240    -3.3680     0.0340 ca         1 CVL       0.128100
      4 C3           4.9340    -3.3450     0.0310 ca         1 CVL      -0.182000
      5 C4           5.6260    -2.1230     0.0020 ca         1 CVL      -0.085000
      6 C5           4.9320    -0.8940    -0.0230 ca         1 CVL      -0.110900
      7 C6           5.6550     0.4300    -0.0560 ce         1 CVL       0.384900
      8 N1           5.0280     1.5610    -0.1010 n2         1 CVL      -0.432300
      9 N2           5.8710     2.6310    -0.1250 n          1 CVL      -0.185800
     10 C7           5.4490     4.0510    -0.1000 c3         1 CVL       0.142700
     11 C8           4.1980     4.3070    -0.9720 c3         1 CVL      -0.103600
     12 C9           5.2120     4.5300     1.3480 c3         1 CVL      -0.103600
     13 C10          7.2190     2.2580    -0.0740 c          1 CVL       0.546000
     14 O2           8.1850     3.0110    -0.0460 o          1 CVL      -0.522000
     15 C11          7.1690     0.7140    -0.0460 c5         1 CVL      -0.205300
     16 C12          7.9080     0.1780    -1.3060 c3         1 CVL      -0.067100
     17 C13          7.8840     0.2240     1.2470 c3         1 CVL      -0.067100
     18 C14          3.5170    -0.9250    -0.0210 ca         1 CVL      -0.143000
     19 C15          2.8100    -2.1490     0.0080 ca         1 CVL       0.109100
     20 O3           1.4240    -2.1930     0.0120 os         1 CVL      -0.332100
     21 C16          0.6110    -1.0090    -0.0140 c3         1 CVL       0.163600
     22 C17         -0.8630    -1.4550    -0.0010 c3         1 CVL      -0.080400
     23 C18         -1.8540    -0.2690    -0.0270 c3         1 CVL      -0.082400
     24 C19         -3.3280    -0.7150    -0.0140 c3         1 CVL       0.164600
     25 O4          -4.1410     0.4700    -0.0400 os         1 CVL      -0.342100
     26 C20         -5.5190     0.4160    -0.0360 ca         1 CVL       0.175100
     27 C21         -6.2230     1.6280    -0.0630 ca         1 CVL      -0.181000
     28 C22         -7.6270     1.6390    -0.0610 ca         1 CVL      -0.034500
     29 C23         -8.3550     0.4290    -0.0320 ca         1 CVL      -0.191500
     30 C24         -9.8250     0.4510    -0.0300 cc         1 CVL       0.472000
     31 N3         -10.6520    -0.6350    -0.0030 na         1 CVL      -0.217700
     32 N4         -11.9520    -0.2450    -0.0100 nc         1 CVL      -0.206800
     33 N5         -11.8990     1.0590    -0.0400 nd         1 CVL      -0.040000
     34 N6         -10.6020     1.5160    -0.0530 nd         1 CVL      -0.395000
     35 C25         -7.6410    -0.7910    -0.0050 ca         1 CVL      -0.034500
     36 C26         -6.2350    -0.7980    -0.0070 ca         1 CVL      -0.181000
     37 H1           2.7050    -6.6430     0.1090 h1         1 CVL       0.041700
     38 H2           4.0810    -5.9850    -0.8010 h1         1 CVL       0.041700
     39 H3           4.0850    -5.9450     0.9830 h1         1 CVL       0.041700
     40 H4           5.5130    -4.2640     0.0500 ha         1 CVL       0.122000
     41 H5           6.7090    -2.1530    -0.0010 ha         1 CVL       0.117000
     42 H8           6.2650     4.6540    -0.5220 h1         1 CVL       0.074700
     43 H9           4.3750     3.9730    -2.0020 hc         1 CVL       0.044367
     44 H10          3.3260     3.7700    -0.5800 hc         1 CVL       0.044367
     45 H11          3.9580     5.3760    -0.9990 hc         1 CVL       0.044367
     46 H12          6.1180     4.3960     1.9500 hc         1 CVL       0.044367
     47 H13          4.9460     5.5940     1.3660 hc         1 CVL       0.044367
     48 H14          4.4000     3.9630     1.8180 hc         1 CVL       0.044367
     49 H15          8.9520     0.5150    -1.3280 hc         1 CVL       0.048700
     50 H16          7.9220    -0.9160    -1.3520 hc         1 CVL       0.048700
     51 H17          7.4290     0.5380    -2.2240 hc         1 CVL       0.048700
     52 H18          7.3890     0.6190     2.1430 hc         1 CVL       0.048700
     53 H19          7.8940    -0.8670     1.3340 hc         1 CVL       0.048700
     54 H20          8.9280     0.5600     1.2750 hc         1 CVL       0.048700
     55 H21          2.9720     0.0140    -0.0410 ha         1 CVL       0.137000
     56 H22          0.8110    -0.3810     0.8650 h1         1 CVL       0.036700
     57 H23          0.8080    -0.4220    -0.9210 h1         1 CVL       0.036700
     58 H24         -1.0480    -2.1000    -0.8690 hc         1 CVL       0.057700
     59 H25         -1.0450    -2.0600     0.8960 hc         1 CVL       0.057700
     60 H26         -1.6690     0.3760     0.8410 hc         1 CVL       0.059200
     61 H27         -1.6710     0.3360    -0.9240 hc         1 CVL       0.059200
     62 H28         -3.5290    -1.3430    -0.8920 h1         1 CVL       0.039200
     63 H29         -3.5260    -1.3020     0.8930 h1         1 CVL       0.039200
     64 H30         -5.6740     2.5660    -0.0850 ha         1 CVL       0.130000
     65 H31         -8.1470     2.5960    -0.0820 ha         1 CVL       0.124500
     66 H32        -10.3780    -1.6080     0.0190 hn         1 CVL       0.384000
     67 H33         -8.1660    -1.7440     0.0180 ha         1 CVL       0.124500
     68 H34         -5.7210    -1.7550     0.0140 ha         1 CVL       0.130000
@<TRIPOS>BOND
     1     1     2 1   
     2     1    37 1   
     3     1    38 1   
     4     1    39 1   
     5     2     3 1   
     6     3     4 ar  
     7     3    19 ar  
     8     4     5 ar  
     9     4    40 1   
    10     5     6 ar  
    11     5    41 1   
    12     6     7 1   
    13     6    18 ar  
    14     7     8 2   
    15     7    15 1   
    16     8     9 1   
    17     9    10 1   
    18     9    13 1   
    19    10    11 1   
    20    10    12 1   
    21    10    42 1   
    22    11    43 1   
    23    11    44 1   
    24    11    45 1   
    25    12    46 1   
    26    12    47 1   
    27    12    48 1   
    28    13    14 2   
    29    13    15 1   
    30    15    16 1   
    31    15    17 1   
    32    16    49 1   
    33    16    50 1   
    34    16    51 1   
    35    17    52 1   
    36    17    53 1   
    37    17    54 1   
    38    18    19 ar  
    39    18    55 1   
    40    19    20 1   
    41    20    21 1   
    42    21    22 1   
    43    21    56 1   
    44    21    57 1   
    45    22    23 1   
    46    22    58 1   
    47    22    59 1   
    48    23    24 1   
    49    23    60 1   
    50    23    61 1   
    51    24    25 1   
    52    24    62 1   
    53    24    63 1   
    54    25    26 1   
    55    26    27 ar  
    56    26    36 ar  
    57    27    28 ar  
    58    27    64 1   
    59    28    29 ar  
    60    28    65 1   
    61    29    30 1   
    62    29    35 ar  
    63    30    31 1   
    64    30    34 2   
    65    31    32 1   
    66    31    66 1   
    67    32    33 2   
    68    33    34 1   
    69    35    36 ar  
    70    35    67 1   
    71    36    68 1   
@<TRIPOS>SUBSTRUCTURE
     1 CVL         1 TEMP              0 ****  ****    0 ROOT
