@<TRIPOS>MOLECULE
CVM
   73    75     1     0     0
SMALL
abcg2


@<TRIPOS>ATOM
      1 C1          -2.9710     0.4940    -0.2310 c3         1 CVM       0.165600
      2 C2          -4.3090     1.0100     0.2550 c3         1 CVM      -0.082400
      3 C3          -5.4700     0.1940    -0.3030 c3         1 CVM      -0.073400
      4 C4          -6.8170     0.6810     0.2170 c3         1 CVM      -0.071400
      5 C6          -8.0340     0.0090    -0.4170 c6         1 CVM      -0.058700
      6 C7          -9.3240     0.6620     0.0810 c6         1 CVM      -0.071400
      7 C8         -10.5720     0.0240    -0.5190 c6         1 CVM      -0.072900
      8 C9         -10.6010    -1.4790    -0.2580 c6         1 CVM      -0.074400
      9 C10         -9.3250    -2.1430    -0.7620 c6         1 CVM      -0.072900
     10 C11         -8.0790    -1.4980    -0.1610 c6         1 CVM      -0.071400
     11 O12         -1.9480     1.3610     0.2380 os         1 CVM      -0.456000
     12 C13         -0.6690     1.0200    -0.1370 c6         1 CVM       0.364300
     13 O14         -0.1880     0.0410     0.7470 os         1 CVM      -0.464000
     14 C15          1.0990    -0.4370     0.4160 c6         1 CVM       0.163300
     15 C16          2.1040     0.7200     0.5120 c6         1 CVM       0.155300
     16 C17          1.6440     1.8740    -0.3710 c6         1 CVM       0.164300
     17 C18          0.2100     2.2640    -0.0470 c6         1 CVM       0.112300
     18 C19          1.4220    -1.5690     1.3660 c3         1 CVM       0.164600
     19 O20          0.4880    -2.6040     1.1630 oh         1 CVM      -0.713000
     20 O21          2.5320     2.9510    -0.1750 oh         1 CVM      -0.729000
     21 O22         -0.1800     3.2460    -0.9720 oh         1 CVM      -0.725000
     22 O23          3.3800     0.3300     0.0570 os         1 CVM      -0.498000
     23 C24          4.4490     0.2570     0.9590 c6         1 CVM       0.365300
     24 O25          4.8160    -1.0620     1.2140 os         1 CVM      -0.454000
     25 C26          5.2710    -1.8090     0.0950 c6         1 CVM       0.169300
     26 C27          6.4750    -1.1250    -0.5520 c6         1 CVM       0.150300
     27 C28          6.1330     0.3230    -0.8840 c6         1 CVM       0.106300
     28 C29          5.6320     1.0290     0.3730 c6         1 CVM       0.117300
     29 C30          5.6140    -3.1940     0.6030 c3         1 CVM       0.169600
     30 O31          4.4390    -3.8070     1.0770 oh         1 CVM      -0.719000
     31 O32          6.8170    -1.8590    -1.7020 oh         1 CVM      -0.719000
     32 O33          7.3010     0.9280    -1.3900 oh         1 CVM      -0.667000
     33 O34          5.3460     2.3840     0.1510 oh         1 CVM      -0.726000
     34 H11C        -2.8080    -0.5290     0.1280 h1         1 CVM       0.035700
     35 H12C        -2.9520     0.4610    -1.3280 h1         1 CVM       0.035700
     36 H21C        -4.3340     0.9870     1.3490 hc         1 CVM       0.051200
     37 H22C        -4.4230     2.0570    -0.0420 hc         1 CVM       0.051200
     38 H31C        -5.4600     0.2520    -1.3970 hc         1 CVM       0.040200
     39 H32C        -5.3270    -0.8610    -0.0510 hc         1 CVM       0.040200
     40 H41C        -6.8580     0.5460     1.3040 hc         1 CVM       0.038700
     41 H42C        -6.8900     1.7610     0.0460 hc         1 CVM       0.038700
     42 H6          -7.9740     0.1630    -1.5040 hc         1 CVM       0.044700
     43 H71C        -9.3650     0.5710     1.1730 hc         1 CVM       0.037950
     44 H72C        -9.3040     1.7340    -0.1370 hc         1 CVM       0.037950
     45 H111        -7.1860    -1.9820    -0.5640 hc         1 CVM       0.037950
     46 H112        -8.0630    -1.6730     0.9230 hc         1 CVM       0.037950
     47 H81C       -11.4690     0.4980    -0.1120 hc         1 CVM       0.037700
     48 H82C       -10.5910     0.2030    -1.6000 hc         1 CVM       0.037700
     49 H91C       -10.7030    -1.6560     0.8190 hc         1 CVM       0.038200
     50 H92C       -11.4770    -1.9310    -0.7300 hc         1 CVM       0.038200
     51 H101        -9.3380    -3.2130    -0.5410 hc         1 CVM       0.037700
     52 H102        -9.2820    -2.0530    -1.8530 hc         1 CVM       0.037700
     53 H13         -0.6490     0.6310    -1.1730 h2         1 CVM       0.034700
     54 H18          0.1670     2.6400     0.9860 h1         1 CVM       0.068700
     55 H15          1.1100    -0.8200    -0.6180 h1         1 CVM       0.059700
     56 H16          2.1530     1.0620     1.5560 h1         1 CVM       0.065700
     57 H191         2.4420    -1.9140     1.1810 h1         1 CVM       0.045200
     58 H192         1.3900    -1.1860     2.3970 h1         1 CVM       0.045200
     59 H17          1.6810     1.5320    -1.4170 h1         1 CVM       0.055700
     60 H21          2.3300     3.6400    -0.8180 ho         1 CVM       0.529000
     61 H22         -1.0340     3.5990    -0.7010 ho         1 CVM       0.527000
     62 H20          0.7590    -3.3540     1.7000 ho         1 CVM       0.507000
     63 H24          4.1620     0.6830     1.9290 h2         1 CVM       0.084700
     64 H29          6.4350     0.9980     1.1200 h1         1 CVM       0.088700
     65 H26          4.4730    -1.8980    -0.6560 h1         1 CVM       0.075700
     66 H27          7.3060    -1.1210     0.1730 h1         1 CVM       0.048700
     67 H301         6.0630    -3.7620    -0.2180 h1         1 CVM       0.037200
     68 H302         6.3760    -3.1050     1.3900 h1         1 CVM       0.037200
     69 H28          5.3380     0.3250    -1.6450 h1         1 CVM       0.057700
     70 H32          7.5740    -1.4320    -2.1160 ho         1 CVM       0.525000
     71 H33          7.0740     1.8140    -1.6890 ho         1 CVM       0.463000
     72 H34          4.4330     2.4840    -0.1660 ho         1 CVM       0.537000
     73 H31          4.6650    -4.6920     1.3780 ho         1 CVM       0.505000
@<TRIPOS>BOND
     1     1     2 1   
     2     1    11 1   
     3     1    34 1   
     4     1    35 1   
     5     2     3 1   
     6     2    36 1   
     7     2    37 1   
     8     3     4 1   
     9     3    38 1   
    10     3    39 1   
    11     4     5 1   
    12     4    40 1   
    13     4    41 1   
    14     5     6 1   
    15     5    10 1   
    16     5    42 1   
    17     6     7 1   
    18     6    43 1   
    19     6    44 1   
    20     7     8 1   
    21     7    47 1   
    22     7    48 1   
    23     8     9 1   
    24     8    49 1   
    25     8    50 1   
    26     9    10 1   
    27     9    51 1   
    28     9    52 1   
    29    10    45 1   
    30    10    46 1   
    31    11    12 1   
    32    12    13 1   
    33    12    17 1   
    34    12    53 1   
    35    13    14 1   
    36    14    15 1   
    37    14    18 1   
    38    14    55 1   
    39    15    16 1   
    40    15    22 1   
    41    15    56 1   
    42    16    17 1   
    43    16    20 1   
    44    16    59 1   
    45    17    21 1   
    46    17    54 1   
    47    18    19 1   
    48    18    57 1   
    49    18    58 1   
    50    19    62 1   
    51    20    60 1   
    52    21    61 1   
    53    22    23 1   
    54    23    24 1   
    55    23    28 1   
    56    23    63 1   
    57    24    25 1   
    58    25    26 1   
    59    25    29 1   
    60    25    65 1   
    61    26    27 1   
    62    26    31 1   
    63    26    66 1   
    64    27    28 1   
    65    27    32 1   
    66    27    69 1   
    67    28    33 1   
    68    28    64 1   
    69    29    30 1   
    70    29    67 1   
    71    29    68 1   
    72    30    73 1   
    73    31    70 1   
    74    32    71 1   
    75    33    72 1   
@<TRIPOS>SUBSTRUCTURE
     1 CVM         1 TEMP              0 ****  ****    0 ROOT
