@<TRIPOS>MOLECULE
CVM
   73    75     1     0     0
SMALL
No Charge or Current Charge


@<TRIPOS>ATOM
      1 C1          -3.0580     0.5650    -0.3920 c3         1 CVM       0.165600
      2 C2          -4.4040     1.0800     0.1500 c3         1 CVM      -0.082400
      3 C3          -5.6120     0.2660    -0.3670 c3         1 CVM      -0.073400
      4 C4          -6.9650     0.7790     0.1810 c3         1 CVM      -0.071400
      5 C6          -8.2330     0.0700    -0.3890 c6         1 CVM      -0.058700
      6 C7          -9.5260     0.7790     0.1070 c6         1 CVM      -0.071400
      7 C8         -10.8020     0.1050    -0.4540 c6         1 CVM      -0.072900
      8 C9         -10.8420    -1.4000    -0.0980 c6         1 CVM      -0.074400
      9 C10         -9.5650    -2.1200    -0.5940 c6         1 CVM      -0.072900
     10 C11         -8.2850    -1.4470    -0.0380 c6         1 CVM      -0.071400
     11 O12         -2.0230     1.3970     0.1550 os         1 CVM      -0.456000
     12 C13         -0.6810     1.0920    -0.2600 c6         1 CVM       0.364300
     13 O14         -0.3110    -0.2100     0.2330 os         1 CVM      -0.464000
     14 C15          1.0100    -0.6470    -0.1930 c6         1 CVM       0.163300
     15 C16          2.0950     0.3400     0.3340 c6         1 CVM       0.155300
     16 C17          1.7440     1.7870    -0.1520 c6         1 CVM       0.164300
     17 C18          0.3110     2.1580     0.3080 c6         1 CVM       0.112300
     18 C19          1.2440    -2.1060     0.3210 c3         1 CVM       0.164600
     19 O20          0.2320    -3.0370    -0.1200 oh         1 CVM      -0.713000
     20 O21          2.6700     2.7890     0.3100 oh         1 CVM      -0.729000
     21 O22         -0.0180     3.5100    -0.1000 oh         1 CVM      -0.725000
     22 O23          3.4190    -0.0700    -0.0870 os         1 CVM      -0.498000
     23 C24          4.5090     0.3760     0.7490 c6         1 CVM       0.365300
     24 O25          5.0830    -0.7710     1.4100 os         1 CVM      -0.454000
     25 C26          5.7180    -1.7330     0.5210 c6         1 CVM       0.169300
     26 C27          6.8750    -1.0440    -0.2690 c6         1 CVM       0.150300
     27 C28          6.3100     0.1800    -1.0450 c6         1 CVM       0.106300
     28 C29          5.5970     1.1570    -0.0690 c6         1 CVM       0.117300
     29 C30          6.2190    -2.9410     1.3800 c3         1 CVM       0.169600
     30 O31          5.1750    -3.5650     2.1590 oh         1 CVM      -0.719000
     31 O32          7.5160    -1.9380    -1.1970 oh         1 CVM      -0.719000
     32 O33          7.3590     0.8620    -1.7570 oh         1 CVM      -0.667000
     33 O34          5.0500     2.2800    -0.8060 oh         1 CVM      -0.726000
     34 H11C        -2.9180    -0.4820    -0.0930 h1         1 CVM       0.035700
     35 H12C        -3.0580     0.6170    -1.4890 h1         1 CVM       0.035700
     36 H21C        -4.3860     1.0420     1.2460 hc         1 CVM       0.051200
     37 H22C        -4.5260     2.1310    -0.1360 hc         1 CVM       0.051200
     38 H31C        -5.6290     0.3040    -1.4640 hc         1 CVM       0.040200
     39 H32C        -5.4720    -0.7840    -0.0830 hc         1 CVM       0.040200
     40 H41C        -6.9550     0.6930     1.2750 hc         1 CVM       0.038700
     41 H42C        -7.0310     1.8520    -0.0370 hc         1 CVM       0.038700
     42 H6          -8.1830     0.1730    -1.4820 hc         1 CVM       0.044700
     43 H71C        -9.5600     0.7680     1.2060 hc         1 CVM       0.037950
     44 H72C        -9.5130     1.8360    -0.1920 hc         1 CVM       0.037950
     45 H111        -7.4100    -1.9670    -0.4490 hc         1 CVM       0.037950
     46 H112        -8.2440    -1.5800     1.0520 hc         1 CVM       0.037950
     47 H81C       -11.6950     0.6060    -0.0540 hc         1 CVM       0.037700
     48 H82C       -10.8370     0.2290    -1.5450 hc         1 CVM       0.037700
     49 H91C       -10.9370    -1.5210     0.9900 hc         1 CVM       0.038200
     50 H92C       -11.7310    -1.8670    -0.5440 hc         1 CVM       0.038200
     51 H101        -9.5920    -3.1760    -0.2910 hc         1 CVM       0.037700
     52 H102        -9.5390    -2.1120    -1.6920 hc         1 CVM       0.037700
     53 H13         -0.6340     1.0980    -1.3600 h2         1 CVM       0.034700
     54 H18          0.2730     2.0860     1.4060 h1         1 CVM       0.068700
     55 H15          1.0400    -0.6650    -1.2920 h1         1 CVM       0.059700
     56 H16          2.0530     0.3140     1.4340 h1         1 CVM       0.065700
     57 H191         2.2330    -2.4370    -0.0250 h1         1 CVM       0.045200
     58 H192         1.2790    -2.0780     1.4190 h1         1 CVM       0.045200
     59 H17          1.7480     1.7760    -1.2530 h1         1 CVM       0.055700
     60 H21          2.1140     3.6110     0.3510 ho         1 CVM       0.529000
     61 H22         -0.9930     3.6050     0.0300 ho         1 CVM       0.527000
     62 H20          0.4300    -3.9030     0.3080 ho         1 CVM       0.507000
     63 H24          4.1260     1.0570     1.5250 h2         1 CVM       0.084700
     64 H29          6.3410     1.5190     0.6580 h1         1 CVM       0.088700
     65 H26          4.9690    -2.1130    -0.1890 h1         1 CVM       0.075700
     66 H27          7.6150    -0.6790     0.4600 h1         1 CVM       0.048700
     67 H301         6.6690    -3.6800     0.7040 h1         1 CVM       0.037200
     68 H302         7.0170    -2.5790     2.0430 h1         1 CVM       0.037200
     69 H28          5.5580    -0.1870    -1.7610 h1         1 CVM       0.057700
     70 H32          7.9570    -1.3390    -1.8480 ho         1 CVM       0.525000
     71 H33          6.9900     1.7580    -1.9420 ho         1 CVM       0.463000
     72 H34          4.1460     2.4650    -0.4090 ho         1 CVM       0.537000
     73 H31          5.6040    -4.2590     2.7120 ho         1 CVM       0.505000
@<TRIPOS>BOND
     1     1     2 1   
     2     1    11 1   
     3     1    34 1   
     4     1    35 1   
     5     2     3 1   
     6     2    36 1   
     7     2    37 1   
     8     3     4 1   
     9     3    38 1   
    10     3    39 1   
    11     4     5 1   
    12     4    40 1   
    13     4    41 1   
    14     5     6 1   
    15     5    10 1   
    16     5    42 1   
    17     6     7 1   
    18     6    43 1   
    19     6    44 1   
    20     7     8 1   
    21     7    47 1   
    22     7    48 1   
    23     8     9 1   
    24     8    49 1   
    25     8    50 1   
    26     9    10 1   
    27     9    51 1   
    28     9    52 1   
    29    10    45 1   
    30    10    46 1   
    31    11    12 1   
    32    12    13 1   
    33    12    17 1   
    34    12    53 1   
    35    13    14 1   
    36    14    15 1   
    37    14    18 1   
    38    14    55 1   
    39    15    16 1   
    40    15    22 1   
    41    15    56 1   
    42    16    17 1   
    43    16    20 1   
    44    16    59 1   
    45    17    21 1   
    46    17    54 1   
    47    18    19 1   
    48    18    57 1   
    49    18    58 1   
    50    19    62 1   
    51    20    60 1   
    52    21    61 1   
    53    22    23 1   
    54    23    24 1   
    55    23    28 1   
    56    23    63 1   
    57    24    25 1   
    58    25    26 1   
    59    25    29 1   
    60    25    65 1   
    61    26    27 1   
    62    26    31 1   
    63    26    66 1   
    64    27    28 1   
    65    27    32 1   
    66    27    69 1   
    67    28    33 1   
    68    28    64 1   
    69    29    30 1   
    70    29    67 1   
    71    29    68 1   
    72    30    73 1   
    73    31    70 1   
    74    32    71 1   
    75    33    72 1   
@<TRIPOS>SUBSTRUCTURE
     1 CVM         1 TEMP              0 ****  ****    0 ROOT
