@<TRIPOS>MOLECULE
CVN
   33    35     1     0     0
SMALL
No Charge or Current Charge


@<TRIPOS>ATOM
      1 C01          3.5400    -0.2960    -0.0270 ca         1 CVN      -0.321600
      2 C02          4.6790     0.3700    -0.4060 ca         1 CVN       0.162100
      3 C03          2.2720     0.1060    -0.4270 ca         1 CVN       0.431000
      4 C04          4.6110     1.4990    -1.2290 ca         1 CVN      -0.179000
      5 C05          2.1790     1.2280    -1.2730 ca         1 CVN      -0.224000
      6 C06          3.3420     1.9290    -1.6690 ca         1 CVN      -0.008000
      7 C07          3.9620    -1.4240     0.7780 c          1 CVN       0.568600
      8 C11         -0.2080    -0.3550     0.0440 ca         1 CVN       0.303000
      9 C12         -1.1180    -1.4220    -0.0240 ca         1 CVN      -0.084000
     10 C13         -0.6940     0.9530     0.2220 ca         1 CVN      -0.084000
     11 C14         -2.5110    -1.1950     0.0420 ca         1 CVN      -0.172800
     12 C15         -2.0810     1.2060     0.3120 ca         1 CVN      -0.172800
     13 C16         -2.9810     0.1240     0.2110 ca         1 CVN      -0.043000
     14 C18         -3.5010    -2.3630    -0.0430 c3         1 CVN       0.359800
     15 C22         -2.6020     2.6370     0.4980 c3         1 CVN       0.359800
     16 F19         -3.8430    -2.8060     1.1880 f          1 CVN      -0.108667
     17 F20         -4.6480    -2.0160    -0.6710 f          1 CVN      -0.108667
     18 F21         -2.9980    -3.4220    -0.7180 f          1 CVN      -0.108667
     19 F23         -1.7260     3.4230     1.1650 f          1 CVN      -0.108667
     20 F24         -2.8370     3.2310    -0.6930 f          1 CVN      -0.108667
     21 F25         -3.7610     2.6750     1.1950 f          1 CVN      -0.108667
     22 N08          5.3240    -1.2870     0.9030 ns         1 CVN      -0.341400
     23 N10          1.1630    -0.6230    -0.0230 nu         1 CVN      -0.980000
     24 O09          5.8430    -0.1830     0.0880 os         1 CVN      -0.100200
     25 O17          3.2750    -2.3410     1.1990 o          1 CVN      -0.537000
     26 H1           5.5150     2.0230    -1.5290 ha         1 CVN       0.143000
     27 H2           1.2130     1.5520    -1.6460 ha         1 CVN       0.130000
     28 H3           3.2580     2.7950    -2.3230 ha         1 CVN       0.122000
     29 H4          -0.7340    -2.4320    -0.1420 ha         1 CVN       0.144000
     30 H5           0.0120     1.7730     0.3130 ha         1 CVN       0.144000
     31 H6          -4.0530     0.3090     0.2700 ha         1 CVN       0.150000
     32 H7           5.9200    -2.1020     1.0000 hn         1 CVN       0.353500
     33 H8           1.4290    -1.5390     0.3490 hn         1 CVN       0.529000
@<TRIPOS>BOND
     1     1     2 ar  
     2     1     3 ar  
     3     1     7 1   
     4     2     4 ar  
     5     2    24 1   
     6     3     5 ar  
     7     3    23 1   
     8     4     6 ar  
     9     4    26 1   
    10     5     6 ar  
    11     5    27 1   
    12     6    28 1   
    13     7    22 1   
    14     7    25 2   
    15     8     9 ar  
    16     8    10 ar  
    17     8    23 1   
    18     9    11 ar  
    19     9    29 1   
    20    10    12 ar  
    21    10    30 1   
    22    11    13 ar  
    23    11    14 1   
    24    12    13 ar  
    25    12    15 1   
    26    13    31 1   
    27    14    16 1   
    28    14    17 1   
    29    14    18 1   
    30    15    19 1   
    31    15    20 1   
    32    15    21 1   
    33    22    24 1   
    34    22    32 1   
    35    23    33 1   
@<TRIPOS>SUBSTRUCTURE
     1 CVN         1 TEMP              0 ****  ****    0 ROOT
