@<TRIPOS>MOLECULE
CVN
   33    35     1     0     0
SMALL
bcc


@<TRIPOS>ATOM
      1 C01          3.4950    -0.3300    -0.0210 ca         1 CVN      -0.321600
      2 C02          4.5950     0.3870    -0.4540 ca         1 CVN       0.162100
      3 C03          2.1910     0.0460    -0.3780 ca         1 CVN       0.292600
      4 C04          4.5050     1.5150    -1.2480 ca         1 CVN      -0.197000
      5 C05          2.0790     1.1690    -1.2000 ca         1 CVN      -0.242000
      6 C06          3.2130     1.8700    -1.6090 ca         1 CVN      -0.026000
      7 C07          4.0060    -1.4290     0.7750 c          1 CVN       0.711100
      8 C11         -0.2050    -0.3930     0.0790 ca         1 CVN       0.164600
      9 C12         -1.1350    -1.4270    -0.0460 ca         1 CVN      -0.102000
     10 C13         -0.6610     0.9080     0.2740 ca         1 CVN      -0.102000
     11 C14         -2.4890    -1.1540     0.0100 ca         1 CVN      -0.172800
     12 C15         -2.0250     1.1660     0.3100 ca         1 CVN      -0.172800
     13 C16         -2.9520     0.1450     0.1770 ca         1 CVN      -0.061000
     14 C18         -3.4850    -2.2730    -0.0710 c3         1 CVN       0.723700
     15 C22         -2.4820     2.5860     0.4610 c3         1 CVN       0.723700
     16 F19         -3.9010    -2.6390     1.1490 f          1 CVN      -0.229967
     17 F20         -4.5740    -1.9220    -0.7610 f          1 CVN      -0.229967
     18 F21         -2.9800    -3.3620    -0.6550 f          1 CVN      -0.229967
     19 F23         -1.7200     3.2690     1.3220 f          1 CVN      -0.229967
     20 F24         -2.4240     3.2400    -0.7080 f          1 CVN      -0.229967
     21 F25         -3.7420     2.6710     0.8940 f          1 CVN      -0.229967
     22 N08          5.3540    -1.1900     0.8400 ns         1 CVN      -0.408400
     23 N10          1.1420    -0.7180     0.0620 nu         1 CVN      -0.648000
     24 O09          5.7390    -0.1500     0.0150 os         1 CVN      -0.100200
     25 O17          3.4310    -2.3620     1.3150 o          1 CVN      -0.612500
     26 H1           5.3700     2.0750    -1.5740 ha         1 CVN       0.161000
     27 H2           1.1140     1.5040    -1.5530 ha         1 CVN       0.148000
     28 H3           3.0720     2.7320    -2.2480 ha         1 CVN       0.140000
     29 H4          -0.7740    -2.4370    -0.1910 ha         1 CVN       0.162000
     30 H5           0.0490     1.7100     0.4230 ha         1 CVN       0.162000
     31 H6          -4.0130     0.3510     0.2060 ha         1 CVN       0.168000
     32 H7           6.0670    -1.9030     0.9160 hn         1 CVN       0.353500
     33 H8           1.3810    -1.6300     0.4210 hn         1 CVN       0.473800
@<TRIPOS>BOND
     1     1     2 ar  
     2     1     3 ar  
     3     1     7 1   
     4     2     4 ar  
     5     2    24 1   
     6     3     5 ar  
     7     3    23 1   
     8     4     6 ar  
     9     4    26 1   
    10     5     6 ar  
    11     5    27 1   
    12     6    28 1   
    13     7    22 1   
    14     7    25 2   
    15     8     9 ar  
    16     8    10 ar  
    17     8    23 1   
    18     9    11 ar  
    19     9    29 1   
    20    10    12 ar  
    21    10    30 1   
    22    11    13 ar  
    23    11    14 1   
    24    12    13 ar  
    25    12    15 1   
    26    13    31 1   
    27    14    16 1   
    28    14    17 1   
    29    14    18 1   
    30    15    19 1   
    31    15    20 1   
    32    15    21 1   
    33    22    24 1   
    34    22    32 1   
    35    23    33 1   
@<TRIPOS>SUBSTRUCTURE
     1 CVN         1 TEMP              0 ****  ****    0 ROOT
