@<TRIPOS>MOLECULE
CVO
   43    44     1     0     0
SMALL
bcc


@<TRIPOS>ATOM
      1 N1          -0.2740    54.6190    86.3030 n7         1 CVO      -0.808200
      2 C2           0.3390    53.4240    86.8540 c6         1 CVO       0.159300
      3 C3           0.6710    52.4500    85.7330 c6         1 CVO      -0.070400
      4 C4          -0.5810    52.0990    84.9270 c6         1 CVO      -0.095700
      5 C5          -1.2700    53.3780    84.4530 c6         1 CVO      -0.070400
      6 C6          -1.5220    54.3130    85.6270 c6         1 CVO       0.159300
      7 C7          -0.1900    51.1720    83.7880 c3         1 CVO       0.165400
      8 O8          -1.2730    50.8430    82.9180 os         1 CVO      -0.434900
      9 C9          -2.1620    49.9370    83.3360 c          1 CVO       0.760100
     10 N10         -3.1280    49.7150    82.4180 n          1 CVO      -0.455800
     11 O11         -2.0800    49.3630    84.4050 o          1 CVO      -0.588000
     12 C12         -4.3590    49.0490    82.8210 c6         1 CVO       0.105500
     13 C13         -5.5820    49.9130    82.4750 c6         1 CVO      -0.120900
     14 C14         -5.2490    51.3940    82.4970 c6         1 CVO       0.191300
     15 C15         -4.1730    51.7130    81.4590 c6         1 CVO      -0.120900
     16 C16         -3.2730    50.5030    81.2080 c6         1 CVO       0.105500
     17 C17         -6.4760    52.2900    82.3700 c3         1 CVO       0.131800
     18 F18         -4.7040    51.6790    83.7710 f          1 CVO      -0.254300
     19 N19         -7.1960    52.0390    81.1330 n8         1 CVO      -0.894800
     20 H1          -0.4490    55.2800    87.0490 hn         1 CVO       0.352800
     21 H3          -0.3130    52.9140    87.5840 h1         1 CVO       0.029700
     22 H4           1.2500    53.7060    87.3850 h1         1 CVO       0.029700
     23 H5           1.1220    51.5470    86.1530 hc         1 CVO       0.047950
     24 H6           1.4170    52.9080    85.0740 hc         1 CVO       0.047950
     25 H7          -1.2690    51.5700    85.5960 hc         1 CVO       0.071700
     26 H8          -0.6410    53.8850    83.7130 hc         1 CVO       0.047950
     27 H9          -2.2220    53.1460    83.9700 hc         1 CVO       0.047950
     28 H10         -1.9700    55.2450    85.2730 h1         1 CVO       0.029700
     29 H11         -2.2580    53.8400    86.2990 h1         1 CVO       0.029700
     30 H12          0.2770    50.2620    84.1750 h1         1 CVO       0.058700
     31 H13          0.5350    51.6690    83.1410 h1         1 CVO       0.058700
     32 H14         -4.3210    48.8550    83.8890 h1         1 CVO       0.063450
     33 H15         -4.4410    48.0800    82.3220 h1         1 CVO       0.063450
     34 H16         -6.3890    49.6920    83.1760 hc         1 CVO       0.062700
     35 H17         -5.9630    49.6710    81.4820 hc         1 CVO       0.062700
     36 H18         -4.6320    52.0080    80.5140 hc         1 CVO       0.062700
     37 H19         -3.5940    52.5720    81.8050 hc         1 CVO       0.062700
     38 H20         -3.7290    49.8520    80.4580 h1         1 CVO       0.063450
     39 H21         -2.3060    50.7970    80.8110 h1         1 CVO       0.063450
     40 H22         -6.1540    53.3340    82.4890 h1         1 CVO       0.045700
     41 H23         -7.1430    52.0690    83.2060 h1         1 CVO       0.045700
     42 H24         -8.1460    52.3720    81.2240 hn         1 CVO       0.344300
     43 H25         -6.7900    52.5700    80.3750 hn         1 CVO       0.344300
@<TRIPOS>BOND
     1     1     2 1   
     2     1     6 1   
     3     1    20 1   
     4     2     3 1   
     5     2    21 1   
     6     2    22 1   
     7     3     4 1   
     8     3    23 1   
     9     3    24 1   
    10     4     5 1   
    11     4     7 1   
    12     4    25 1   
    13     5     6 1   
    14     5    26 1   
    15     5    27 1   
    16     6    28 1   
    17     6    29 1   
    18     7     8 1   
    19     7    30 1   
    20     7    31 1   
    21     8     9 1   
    22     9    10 1   
    23     9    11 2   
    24    10    12 1   
    25    10    16 1   
    26    12    13 1   
    27    12    32 1   
    28    12    33 1   
    29    13    14 1   
    30    13    34 1   
    31    13    35 1   
    32    14    15 1   
    33    14    17 1   
    34    14    18 1   
    35    15    16 1   
    36    15    36 1   
    37    15    37 1   
    38    16    38 1   
    39    16    39 1   
    40    17    19 1   
    41    17    40 1   
    42    17    41 1   
    43    19    42 1   
    44    19    43 1   
@<TRIPOS>SUBSTRUCTURE
     1 CVO         1 TEMP              0 ****  ****    0 ROOT
