@<TRIPOS>MOLECULE
CVO
   43    44     1     0     0
SMALL
No Charge or Current Charge


@<TRIPOS>ATOM
      1 N1           1.0800    54.2740    86.5350 n7         1 CVO      -0.863400
      2 C2           1.5880    52.8870    86.6620 c6         1 CVO       0.159300
      3 C3           1.4250    52.1040    85.3350 c6         1 CVO      -0.070400
      4 C4          -0.0510    52.1150    84.8490 c6         1 CVO      -0.095700
      5 C5          -0.5620    53.5840    84.7730 c6         1 CVO      -0.070400
      6 C6          -0.3410    54.3260    86.1150 c6         1 CVO       0.159300
      7 C7          -0.2050    51.3590    83.4920 c3         1 CVO       0.188600
      8 O8          -1.5800    51.3720    83.0610 os         1 CVO      -0.458100
      9 C9          -2.4810    50.5440    83.6780 c          1 CVO       0.644100
     10 N10         -3.7960    50.7650    83.2280 n          1 CVO      -0.388800
     11 O11         -2.1880    49.7000    84.5130 o          1 CVO      -0.539000
     12 C12         -4.9240    49.9170    83.7090 c6         1 CVO       0.105500
     13 C13         -6.0200    49.7530    82.6330 c6         1 CVO      -0.120900
     14 C14         -6.6350    51.1150    82.2060 c6         1 CVO       0.210000
     15 C15         -5.6120    52.2830    82.3290 c6         1 CVO      -0.120900
     16 C16         -4.1390    51.8180    82.2230 c6         1 CVO       0.105500
     17 C17         -7.3340    51.0400    80.7980 c3         1 CVO       0.131800
     18 F18         -7.6670    51.3940    83.1280 f          1 CVO      -0.273000
     19 N19         -6.4440    50.8060    79.6250 n8         1 CVO      -1.005200
     20 H1           1.1740    54.7450    87.4440 hn         1 CVO       0.408000
     21 H3           1.0380    52.3680    87.4620 h1         1 CVO       0.029700
     22 H4           2.6490    52.9100    86.9490 h1         1 CVO       0.029700
     23 H5           1.7690    51.0700    85.4760 hc         1 CVO       0.047950
     24 H6           2.0760    52.5490    84.5690 hc         1 CVO       0.047950
     25 H7          -0.6530    51.5740    85.5910 hc         1 CVO       0.071700
     26 H8          -0.0400    54.1210    83.9690 hc         1 CVO       0.047950
     27 H9          -1.6300    53.6050    84.5220 hc         1 CVO       0.047950
     28 H10         -0.6540    55.3750    86.0120 h1         1 CVO       0.029700
     29 H11         -0.9690    53.8670    86.8940 h1         1 CVO       0.029700
     30 H12          0.1700    50.3310    83.5920 h1         1 CVO       0.058700
     31 H13          0.4210    51.8650    82.7450 h1         1 CVO       0.058700
     32 H14         -5.3540    50.3690    84.6150 h1         1 CVO       0.063450
     33 H15         -4.5490    48.9210    83.9860 h1         1 CVO       0.063450
     34 H16         -6.8070    49.0790    82.9970 hc         1 CVO       0.062700
     35 H17         -5.5750    49.2530    81.7620 hc         1 CVO       0.062700
     36 H18         -5.8160    53.0560    81.5760 hc         1 CVO       0.062700
     37 H19         -5.7380    52.7790    83.3010 hc         1 CVO       0.062700
     38 H20         -3.9440    51.4230    81.2160 h1         1 CVO       0.063450
     39 H21         -3.4920    52.6960    82.3630 h1         1 CVO       0.063450
     40 H22         -7.8810    51.9790    80.6320 h1         1 CVO       0.045700
     41 H23         -8.0750    50.2280    80.8290 h1         1 CVO       0.045700
     42 H24         -7.0110    50.7960    78.7680 hn         1 CVO       0.399500
     43 H25         -5.8320    51.6210    79.4960 hn         1 CVO       0.399500
@<TRIPOS>BOND
     1     1     2 1   
     2     1     6 1   
     3     1    20 1   
     4     2     3 1   
     5     2    21 1   
     6     2    22 1   
     7     3     4 1   
     8     3    23 1   
     9     3    24 1   
    10     4     5 1   
    11     4     7 1   
    12     4    25 1   
    13     5     6 1   
    14     5    26 1   
    15     5    27 1   
    16     6    28 1   
    17     6    29 1   
    18     7     8 1   
    19     7    30 1   
    20     7    31 1   
    21     8     9 1   
    22     9    10 1   
    23     9    11 2   
    24    10    12 1   
    25    10    16 1   
    26    12    13 1   
    27    12    32 1   
    28    12    33 1   
    29    13    14 1   
    30    13    34 1   
    31    13    35 1   
    32    14    15 1   
    33    14    17 1   
    34    14    18 1   
    35    15    16 1   
    36    15    36 1   
    37    15    37 1   
    38    16    38 1   
    39    16    39 1   
    40    17    19 1   
    41    17    40 1   
    42    17    41 1   
    43    19    42 1   
    44    19    43 1   
@<TRIPOS>SUBSTRUCTURE
     1 CVO         1 TEMP              0 ****  ****    0 ROOT
