@<TRIPOS>MOLECULE
CVP
   64    67     1     0     0
SMALL
No Charge or Current Charge


@<TRIPOS>ATOM
      1 C1          -3.1540    -1.4290    -0.0950 ca         1 CVP       0.006000
      2 C3          -5.3270    -0.3600     0.7570 c          1 CVP       0.659100
      3 C11         -1.1950    -2.3100    -1.2650 ca         1 CVP      -0.066500
      4 C12         -2.4080    -1.6010    -1.2760 ca         1 CVP      -0.159000
      5 C13         -9.7010     1.0390    -0.2750 ca         1 CVP       0.356900
      6 C15        -10.2990     2.9060    -1.5130 ca         1 CVP       0.342900
      7 C16         -9.0940     3.5560    -1.1950 ca         1 CVP      -0.167000
      8 C17         -8.1580     2.9040    -0.3770 ca         1 CVP      -0.063000
      9 C20          3.0400    -3.1130     0.2880 c          1 CVP       0.616700
     10 C21          4.0610    -2.0280     0.5690 ca         1 CVP      -0.152600
     11 C23          5.4300    -2.3690     0.6580 ca         1 CVP      -0.075000
     12 C24          6.4030    -1.3880     0.9160 ca         1 CVP      -0.110500
     13 C25          6.0290    -0.0430     1.0920 ca         1 CVP      -0.065300
     14 C26          4.6700     0.3060     1.0040 ca         1 CVP      -0.110500
     15 C27          3.6930    -0.6710     0.7460 ca         1 CVP      -0.075000
     16 C28          7.0830     1.0270     1.3720 c3         1 CVP       0.212100
     17 C30          8.1770     3.1150     0.6130 c6         1 CVP       0.128300
     18 N2          -4.3710    -0.7000    -0.1860 ns         1 CVP      -0.161000
     19 N4          -6.3600     0.3660     0.2180 ns         1 CVP      -0.522900
     20 O5          -5.2920    -0.6530     1.9440 o          1 CVP      -0.618100
     21 C6          -7.5010     0.8590     0.9840 c3         1 CVP       0.165300
     22 C7          -8.4690     1.6150     0.0930 ca         1 CVP      -0.170300
     23 C8          -2.6600    -1.9800     1.1070 ca         1 CVP      -0.159000
     24 C9          -1.4460    -2.6900     1.1200 ca         1 CVP      -0.066500
     25 C10         -0.7080    -2.8600    -0.0660 ca         1 CVP      -0.147300
     26 N14        -10.6060     1.6660    -1.0640 nb         1 CVP      -0.665000
     27 N19          1.7230    -2.7200     0.2130 ns         1 CVP      -0.504900
     28 O22          3.3560    -4.2860     0.1340 o          1 CVP      -0.604100
     29 N29          7.2710     1.9820     0.2530 n3         1 CVP      -0.720600
     30 C31          8.3420     4.1390    -0.5570 c6         1 CVP       0.146800
     31 N32          8.7950     3.4860    -1.8200 n7         1 CVP      -0.840400
     32 C33          7.8930     2.3530    -2.1840 c6         1 CVP       0.146800
     33 C34          7.7260     1.3290    -1.0150 c6         1 CVP       0.128300
     34 H1          -0.6320    -2.4290    -2.1890 ha         1 CVP       0.117500
     35 H2          -2.7700    -1.1830    -2.2130 ha         1 CVP       0.129500
     36 H3          -9.9750     0.0430     0.0710 h4         1 CVP       0.028100
     37 H4         -11.0410     3.3910    -2.1470 h4         1 CVP       0.021100
     38 H5          -8.8970     4.5520    -1.5820 ha         1 CVP       0.126000
     39 H6          -7.2180     3.3870    -0.1150 ha         1 CVP       0.120000
     40 H7           0.5810    -4.3960     0.7300 h1         1 CVP       0.063200
     41 H8           0.7650    -4.1180    -1.0160 h1         1 CVP       0.063200
     42 H9           5.7480    -3.4020     0.5260 ha         1 CVP       0.123500
     43 H10          7.4500    -1.6760     0.9780 ha         1 CVP       0.123500
     44 H11          4.3710     1.3440     1.1330 ha         1 CVP       0.123500
     45 H12          2.6560    -0.3540     0.6860 ha         1 CVP       0.123500
     46 H13          6.7730     1.5720     2.2740 h1         1 CVP       0.041700
     47 H14          8.0370     0.5380     1.6120 h1         1 CVP       0.041700
     48 H16          9.1710     2.7300     0.8860 h1         1 CVP       0.035950
     49 H17         -4.5740    -0.3690    -1.1200 hn         1 CVP       0.144000
     50 H18         -6.3200     0.5720    -0.7720 hn         1 CVP       0.308500
     51 H19         -8.0080     0.0080     1.4580 h1         1 CVP       0.062200
     52 H20         -7.1370     1.5230     1.7800 h1         1 CVP       0.062200
     53 H21         -3.1980    -1.8710     2.0420 ha         1 CVP       0.129500
     54 H22         -1.0780    -3.1060     2.0550 ha         1 CVP       0.117500
     55 H23          1.5230    -1.7390     0.3490 hn         1 CVP       0.314500
     56 H25          7.3750     4.6360    -0.7300 h1         1 CVP       0.059200
     57 H26          9.0610     4.9180    -0.2620 h1         1 CVP       0.059200
     58 H27          9.7310     3.0980    -1.6520 hn         1 CVP       0.399000
     59 H29          6.9010     2.7490    -2.4510 h1         1 CVP       0.059200
     60 H30          8.2860     1.8340    -3.0700 h1         1 CVP       0.059200
     61 H31          8.6880     0.8190    -0.8520 h1         1 CVP       0.035950
     62 H32          7.0070     0.5600    -1.3320 h1         1 CVP       0.035950
     63 C18          0.6070    -3.6220    -0.0490 c3         1 CVP       0.151300
     64 H15          7.7870     3.6480     1.4920 h1         1 CVP       0.035950
@<TRIPOS>BOND
     1     1     4 ar  
     2     1    18 1   
     3     1    23 ar  
     4     2    18 1   
     5     2    19 1   
     6     2    20 2   
     7     3     4 ar  
     8     3    25 ar  
     9     3    34 1   
    10     4    35 1   
    11     5    22 ar  
    12     5    26 ar  
    13     5    36 1   
    14     6     7 ar  
    15     6    26 ar  
    16     6    37 1   
    17     7     8 ar  
    18     7    38 1   
    19     8    22 ar  
    20     8    39 1   
    21     9    10 1   
    22     9    27 1   
    23     9    28 2   
    24    10    11 ar  
    25    10    15 ar  
    26    11    12 ar  
    27    11    42 1   
    28    12    13 ar  
    29    12    43 1   
    30    13    14 ar  
    31    13    16 1   
    32    14    15 ar  
    33    14    44 1   
    34    15    45 1   
    35    16    29 1   
    36    16    46 1   
    37    16    47 1   
    38    17    29 1   
    39    17    30 1   
    40    17    48 1   
    41    17    64 1   
    42    18    49 1   
    43    19    21 1   
    44    19    50 1   
    45    21    22 1   
    46    21    51 1   
    47    21    52 1   
    48    23    24 ar  
    49    23    53 1   
    50    24    25 ar  
    51    24    54 1   
    52    25    63 1   
    53    27    55 1   
    54    27    63 1   
    55    29    33 1   
    56    30    31 1   
    57    30    56 1   
    58    30    57 1   
    59    31    32 1   
    60    31    58 1   
    61    32    33 1   
    62    32    59 1   
    63    32    60 1   
    64    33    61 1   
    65    33    62 1   
    66    40    63 1   
    67    41    63 1   
@<TRIPOS>SUBSTRUCTURE
     1 CVP         1 TEMP              0 ****  ****    0 ROOT
