@<TRIPOS>MOLECULE
CVP
   64    67     1     0     0
SMALL
abcg2


@<TRIPOS>ATOM
      1 C1          -2.8870    -1.4430    -0.5230 ca         1 CVP       0.006000
      2 C3          -4.6410     0.0760     0.3870 c          1 CVP       0.659100
      3 C11         -1.2560    -2.7330    -1.7620 ca         1 CVP      -0.066500
      4 C12         -2.4090    -1.9670    -1.7270 ca         1 CVP      -0.159000
      5 C13         -8.8160     1.0120     0.4140 ca         1 CVP       0.356900
      6 C15        -10.3370     2.3090    -0.6700 ca         1 CVP       0.342900
      7 C16         -9.4130     3.3210    -0.8650 ca         1 CVP      -0.167000
      8 C17         -8.1240     3.1400    -0.3840 ca         1 CVP      -0.063000
      9 C20          2.7060    -3.1240     0.6880 c          1 CVP       0.616700
     10 C21          3.7650    -2.0800     0.8320 ca         1 CVP      -0.152600
     11 C23          4.9740    -2.4310     1.4250 ca         1 CVP      -0.075000
     12 C24          5.9790    -1.4890     1.5810 ca         1 CVP      -0.110500
     13 C25          5.7900    -0.1690     1.1830 ca         1 CVP      -0.065300
     14 C26          4.5710     0.1850     0.6120 ca         1 CVP      -0.110500
     15 C27          3.5730    -0.7580     0.4320 ca         1 CVP      -0.075000
     16 C28          6.8620     0.8650     1.4190 c3         1 CVP       0.212100
     17 C30          7.6580     3.0420     0.7890 c6         1 CVP       0.128300
     18 N2          -4.0580    -0.6930    -0.5880 ns         1 CVP      -0.161000
     19 N4          -5.7580     0.7240    -0.0350 ns         1 CVP      -0.522900
     20 O5          -4.2220     0.1620     1.5310 o          1 CVP      -0.618100
     21 C6          -6.4280     1.6930     0.8070 c3         1 CVP       0.165300
     22 C7          -7.8070     1.9610     0.2750 ca         1 CVP      -0.170300
     23 C8          -2.1750    -1.7170     0.6500 ca         1 CVP      -0.159000
     24 C9          -1.0200    -2.4810     0.5920 ca         1 CVP      -0.066500
     25 C10         -0.5380    -3.0020    -0.6040 ca         1 CVP      -0.147300
     26 N14        -10.0500     1.1720    -0.0420 nb         1 CVP      -0.665000
     27 N19          1.8930    -2.9760    -0.3720 ns         1 CVP      -0.504900
     28 O22          2.6130    -4.0460     1.4880 o          1 CVP      -0.604100
     29 N29          6.9180     1.8630     0.3770 n3         1 CVP      -0.720600
     30 C31          7.6200     4.1000    -0.3040 c6         1 CVP       0.146800
     31 N32          8.0970     3.6210    -1.5910 n7         1 CVP      -0.840400
     32 C33          7.4170     2.3900    -1.9570 c6         1 CVP       0.146800
     33 C34          7.4490     1.3290    -0.8650 c6         1 CVP       0.128300
     34 H1          -0.9120    -3.1180    -2.7140 ha         1 CVP       0.117500
     35 H2          -2.9430    -1.7690    -2.6490 ha         1 CVP       0.129500
     36 H3          -8.6070     0.0770     0.9260 h4         1 CVP       0.028100
     37 H4         -11.3530     2.4180    -1.0340 h4         1 CVP       0.021100
     38 H5          -9.6960     4.2280    -1.3820 ha         1 CVP       0.126000
     39 H6          -7.3730     3.9100    -0.5190 ha         1 CVP       0.120000
     40 H7           0.7170    -4.6030     0.0960 h1         1 CVP       0.063200
     41 H8           0.8510    -4.2740    -1.6220 h1         1 CVP       0.063200
     42 H9           5.1420    -3.4500     1.7480 ha         1 CVP       0.123500
     43 H10          6.9240    -1.7880     2.0190 ha         1 CVP       0.123500
     44 H11          4.4080     1.2090     0.3020 ha         1 CVP       0.123500
     45 H12          2.6310    -0.4410     0.0000 ha         1 CVP       0.123500
     46 H13          6.6400     1.3740     2.3630 h1         1 CVP       0.041700
     47 H14          7.8310     0.3600     1.5700 h1         1 CVP       0.041700
     48 H16          8.7100     2.8010     1.0230 h1         1 CVP       0.035950
     49 H17         -4.4790    -0.6580    -1.5040 hn         1 CVP       0.144000
     50 H18         -5.9640     0.7640    -1.0210 hn         1 CVP       0.308500
     51 H19         -6.4930     1.2950     1.8200 h1         1 CVP       0.062200
     52 H20         -5.8670     2.6310     0.8670 h1         1 CVP       0.062200
     53 H21         -2.5140    -1.3470     1.6030 ha         1 CVP       0.129500
     54 H22         -0.4870    -2.6780     1.5160 ha         1 CVP       0.117500
     55 H23          2.0850    -2.2400    -1.0330 hn         1 CVP       0.314500
     56 H25          6.5880     4.4470    -0.4280 h1         1 CVP       0.059200
     57 H26          8.2130     4.9640     0.0010 h1         1 CVP       0.059200
     58 H27          9.0920     3.4380    -1.5220 hn         1 CVP       0.399000
     59 H29          6.3740     2.6300    -2.1860 h1         1 CVP       0.059200
     60 H30          7.8630     1.9910    -2.8700 h1         1 CVP       0.059200
     61 H31          8.4860     0.9690    -0.7340 h1         1 CVP       0.035950
     62 H32          6.8530     0.4680    -1.1770 h1         1 CVP       0.035950
     63 C18          0.7370    -3.8030    -0.6430 c3         1 CVP       0.151300
     64 H15          7.2110     3.4400     1.7040 h1         1 CVP       0.035950
@<TRIPOS>BOND
     1     1     4 ar  
     2     1    18 1   
     3     1    23 ar  
     4     2    18 1   
     5     2    19 1   
     6     2    20 2   
     7     3     4 ar  
     8     3    25 ar  
     9     3    34 1   
    10     4    35 1   
    11     5    22 ar  
    12     5    26 ar  
    13     5    36 1   
    14     6     7 ar  
    15     6    26 ar  
    16     6    37 1   
    17     7     8 ar  
    18     7    38 1   
    19     8    22 ar  
    20     8    39 1   
    21     9    10 1   
    22     9    27 1   
    23     9    28 2   
    24    10    11 ar  
    25    10    15 ar  
    26    11    12 ar  
    27    11    42 1   
    28    12    13 ar  
    29    12    43 1   
    30    13    14 ar  
    31    13    16 1   
    32    14    15 ar  
    33    14    44 1   
    34    15    45 1   
    35    16    29 1   
    36    16    46 1   
    37    16    47 1   
    38    17    29 1   
    39    17    30 1   
    40    17    48 1   
    41    17    64 1   
    42    18    49 1   
    43    19    21 1   
    44    19    50 1   
    45    21    22 1   
    46    21    51 1   
    47    21    52 1   
    48    23    24 ar  
    49    23    53 1   
    50    24    25 ar  
    51    24    54 1   
    52    25    63 1   
    53    27    55 1   
    54    27    63 1   
    55    29    33 1   
    56    30    31 1   
    57    30    56 1   
    58    30    57 1   
    59    31    32 1   
    60    31    58 1   
    61    32    33 1   
    62    32    59 1   
    63    32    60 1   
    64    33    61 1   
    65    33    62 1   
    66    40    63 1   
    67    41    63 1   
@<TRIPOS>SUBSTRUCTURE
     1 CVP         1 TEMP              0 ****  ****    0 ROOT
