@<TRIPOS>MOLECULE
CVQ
   63    67     1     0     0
SMALL
No Charge or Current Charge


@<TRIPOS>ATOM
      1 C4           3.4690    -0.5650    -0.3850 ca         1 CVQ       0.376900
      2 C14         -2.2460    -5.6460     0.3310 ca         1 CVQ      -0.078000
      3 C6           1.8440    -2.1550     0.0500 ca         1 CVQ       0.158700
      4 C11         -0.2810    -3.6650     0.3490 ca         1 CVQ      -0.190900
      5 C7           0.4840    -2.4400     0.5600 cc         1 CVQ       0.284900
      6 C10         -1.4600    -3.4730     1.0120 ca         1 CVQ      -0.045200
      7 C12         -0.0310    -4.8490    -0.3700 ca         1 CVQ      -0.025000
      8 C13         -1.0320    -5.8450    -0.3670 ca         1 CVQ      -0.152000
      9 N1           2.5990    -3.1790    -0.4140 nb         1 CVQ      -0.179000
     10 C3           4.3250    -1.5690    -0.8910 ca         1 CVQ      -0.023900
     11 C37          5.9060     4.2410    -1.6060 c3         1 CVQ       0.155900
     12 C31          4.0230     3.1870    -0.3890 ca         1 CVQ       0.025100
     13 C32          3.4840     4.4350     0.0100 ca         1 CVQ       0.273900
     14 N33          2.3670     4.5550     0.7630 nb         1 CVQ      -0.662000
     15 C34          1.7440     3.4220     1.1510 ca         1 CVQ       0.323900
     16 C35          2.1980     2.1430     0.8070 ca         1 CVQ      -0.159000
     17 C30          3.3520     2.0100     0.0150 ca         1 CVQ       0.319000
     18 N29          3.8870     0.7700    -0.3790 nu         1 CVQ      -0.921900
     19 N5           2.2420    -0.8600     0.0700 nb         1 CVQ      -0.213000
     20 O38          5.5850    -1.2370    -1.3710 os         1 CVQ      -0.341100
     21 C39          6.4810    -2.2350    -1.8940 c3         1 CVQ       0.150900
     22 C2           3.8310    -2.8910    -0.8810 ca         1 CVQ       0.047900
     23 N8          -0.2020    -1.5560     1.3060 nd         1 CVQ      -0.469100
     24 C15         -2.4740    -4.4440     1.0310 ca         1 CVQ      -0.126000
     25 N9          -1.3950    -2.2140     1.5750 na         1 CVQ       0.079600
     26 C16         -2.4790    -1.5820     2.3550 c3         1 CVQ       0.167900
     27 C17         -3.1740    -0.4490     1.5980 ca         1 CVQ      -0.247300
     28 C22         -2.7450     0.8830     1.7430 ca         1 CVQ       0.262500
     29 C21         -3.3730     1.9160     1.0370 ca         1 CVQ      -0.248000
     30 F23         -1.7190     1.1860     2.5690 f          1 CVQ      -0.167000
     31 C18         -4.2400    -0.7210     0.7240 ca         1 CVQ       0.262500
     32 F28         -4.6740    -1.9900     0.5550 f          1 CVQ      -0.167000
     33 C19         -4.8720     0.3090     0.0150 ca         1 CVQ      -0.248000
     34 C20         -4.4360     1.6380     0.1710 ca         1 CVQ       0.218100
     35 O24         -5.0140     2.6950    -0.4970 os         1 CVQ      -0.323100
     36 C25         -6.1150     2.5170    -1.4120 c3         1 CVQ       0.159600
     37 C26         -6.5210     3.8990    -1.9820 c3         1 CVQ       0.162600
     38 O27         -5.4810     4.4550    -2.8070 oh         1 CVQ      -0.646000
     39 H1          -3.0090    -6.4210     0.3230 ha         1 CVQ       0.110000
     40 H2           0.8920    -5.0120    -0.9190 ha         1 CVQ       0.137000
     41 H3          -0.8680    -6.7730    -0.9110 ha         1 CVQ       0.112000
     42 H4           6.7790     3.9370    -2.1960 h1         1 CVQ       0.042033
     43 H5           5.2740     4.8790    -2.2370 h1         1 CVQ       0.042033
     44 H6           6.2610     4.8310    -0.7520 h1         1 CVQ       0.042033
     45 H7           3.9550     5.3740    -0.2750 h4         1 CVQ       0.017100
     46 H8           0.8510     3.5450     1.7630 h4         1 CVQ       0.023100
     47 H9           1.6490     1.2870     1.1740 ha         1 CVQ       0.175000
     48 H10          4.7890     0.8790    -0.8470 hn         1 CVQ       0.532000
     49 H11          6.7200    -2.9840    -1.1290 h1         1 CVQ       0.044700
     50 H12          6.0370    -2.7440    -2.7580 h1         1 CVQ       0.044700
     51 H13          7.4200    -1.7690    -2.2200 h1         1 CVQ       0.044700
     52 H14          4.4120    -3.7340    -1.2490 h4         1 CVQ       0.024100
     53 H15         -3.4100    -4.2850     1.5610 ha         1 CVQ       0.120000
     54 H16         -3.2130    -2.3420     2.6460 h1         1 CVQ       0.074700
     55 H17         -2.0450    -1.1980     3.2860 h1         1 CVQ       0.074700
     56 H18         -3.0300     2.9390     1.1610 ha         1 CVQ       0.147500
     57 H19         -5.6920     0.0540    -0.6480 ha         1 CVQ       0.147500
     58 H20         -5.8340     1.8520    -2.2390 h1         1 CVQ       0.049200
     59 H21         -6.9770     2.0800    -0.8940 h1         1 CVQ       0.049200
     60 H22         -7.4410     3.7760    -2.5700 h1         1 CVQ       0.031200
     61 H23         -6.7520     4.5740    -1.1470 h1         1 CVQ       0.031200
     62 H24         -5.7890     5.3420    -3.0980 ho         1 CVQ       0.447000
     63 O36          5.1780     3.0810    -1.1600 os         1 CVQ      -0.360100
@<TRIPOS>BOND
     1     1    10 ar  
     2     1    18 1   
     3     1    19 ar  
     4     2     8 ar  
     5     2    24 ar  
     6     2    39 1   
     7     3     5 1   
     8     3     9 ar  
     9     3    19 ar  
    10     4     5 1   
    11     4     6 ar  
    12     4     7 ar  
    13     5    23 2   
    14     6    24 ar  
    15     6    25 1   
    16     7     8 ar  
    17     7    40 1   
    18     8    41 1   
    19     9    22 ar  
    20    10    20 1   
    21    10    22 ar  
    22    11    42 1   
    23    11    43 1   
    24    11    44 1   
    25    11    63 1   
    26    12    13 ar  
    27    12    17 ar  
    28    12    63 1   
    29    13    14 ar  
    30    13    45 1   
    31    14    15 ar  
    32    15    16 ar  
    33    15    46 1   
    34    16    17 ar  
    35    16    47 1   
    36    17    18 1   
    37    18    48 1   
    38    20    21 1   
    39    21    49 1   
    40    21    50 1   
    41    21    51 1   
    42    22    52 1   
    43    23    25 1   
    44    24    53 1   
    45    25    26 1   
    46    26    27 1   
    47    26    54 1   
    48    26    55 1   
    49    27    28 ar  
    50    27    31 ar  
    51    28    29 ar  
    52    28    30 1   
    53    29    34 ar  
    54    29    56 1   
    55    31    32 1   
    56    31    33 ar  
    57    33    34 ar  
    58    33    57 1   
    59    34    35 1   
    60    35    36 1   
    61    36    37 1   
    62    36    58 1   
    63    36    59 1   
    64    37    38 1   
    65    37    60 1   
    66    37    61 1   
    67    38    62 1   
@<TRIPOS>SUBSTRUCTURE
     1 CVQ         1 TEMP              0 ****  ****    0 ROOT
