@<TRIPOS>MOLECULE
CVQ
   63    67     1     0     0
SMALL
abcg2


@<TRIPOS>ATOM
      1 C4           3.1960    -0.4880    -0.6140 ca         1 CVQ       0.376900
      2 C14         -2.1470    -5.7080     0.9740 ca         1 CVQ      -0.078000
      3 C6           1.6870    -2.1220    -0.1420 ca         1 CVQ       0.158700
      4 C11         -0.2610    -3.7290     0.5100 ca         1 CVQ      -0.190900
      5 C7           0.4270    -2.4790     0.5090 cc         1 CVQ       0.284900
      6 C10         -1.4120    -3.4830     1.2800 ca         1 CVQ      -0.045200
      7 C12         -0.0560    -5.0030    -0.0390 ca         1 CVQ      -0.025000
      8 C13         -1.0000    -5.9750     0.1990 ca         1 CVQ      -0.152000
      9 N1           2.3370    -3.0670    -0.7860 nb         1 CVQ      -0.179000
     10 C3           3.9770    -1.4330    -1.3330 ca         1 CVQ      -0.023900
     11 C37          5.6840     4.2420    -0.8860 c3         1 CVQ       0.155900
     12 C31          3.7570     3.1170    -0.0630 ca         1 CVQ       0.025100
     13 C32          3.2180     4.2600     0.5000 ca         1 CVQ       0.273900
     14 N33          2.0560     4.2780     1.1530 nb         1 CVQ      -0.662000
     15 C34          1.3990     3.1360     1.2580 ca         1 CVQ       0.323900
     16 C35          1.8400     1.9280     0.7330 ca         1 CVQ      -0.159000
     17 C30          3.0500     1.8990     0.0470 ca         1 CVQ       0.319000
     18 N29          3.6370     0.7970    -0.5450 nu         1 CVQ      -0.921900
     19 N5           2.0760    -0.8510    -0.0350 nb         1 CVQ      -0.213000
     20 O38          5.1060    -0.9820    -1.8950 os         1 CVQ      -0.341100
     21 C39          5.8850    -1.8930    -2.6520 c3         1 CVQ       0.150900
     22 C2           3.4850    -2.7150    -1.3810 ca         1 CVQ       0.047900
     23 N8          -0.2410    -1.5910     1.2090 nd         1 CVQ      -0.469100
     24 C15         -2.3750    -4.4680     1.5260 ca         1 CVQ      -0.126000
     25 N9          -1.3300    -2.1850     1.6760 na         1 CVQ       0.079600
     26 C16         -2.2820    -1.4070     2.4400 c3         1 CVQ       0.167900
     27 C17         -2.9060    -0.3270     1.6040 ca         1 CVQ      -0.247300
     28 C22         -2.4240     0.9770     1.5800 ca         1 CVQ       0.262500
     29 C21         -2.9480     1.9750     0.7920 ca         1 CVQ      -0.248000
     30 F23         -1.3920     1.2820     2.3760 f          1 CVQ      -0.167000
     31 C18         -3.9690    -0.5700     0.7510 ca         1 CVQ       0.262500
     32 F28         -4.4660    -1.8120     0.7140 f          1 CVQ      -0.167000
     33 C19         -4.5490     0.3810    -0.0650 ca         1 CVQ      -0.248000
     34 C20         -4.0270     1.6740    -0.0420 ca         1 CVQ       0.218100
     35 O24         -4.4960     2.6820    -0.7820 os         1 CVQ      -0.323100
     36 C25         -5.6150     2.4590    -1.6290 c3         1 CVQ       0.159600
     37 C26         -5.9590     3.7550    -2.3140 c3         1 CVQ       0.162600
     38 O27         -4.9080     4.1220    -3.1730 oh         1 CVQ      -0.646000
     39 H1          -2.8650    -6.5000     1.1400 ha         1 CVQ       0.110000
     40 H2           0.8230    -5.2090    -0.6330 ha         1 CVQ       0.137000
     41 H3          -0.8660    -6.9660    -0.2150 ha         1 CVQ       0.112000
     42 H4           6.5750     3.9630    -1.4410 h1         1 CVQ       0.042033
     43 H5           5.1360     4.9990    -1.4520 h1         1 CVQ       0.042033
     44 H6           5.9820     4.6630     0.0770 h1         1 CVQ       0.042033
     45 H7           3.7390     5.2080     0.4270 h4         1 CVQ       0.017100
     46 H8           0.4570     3.1650     1.7940 h4         1 CVQ       0.023100
     47 H9           1.2520     1.0340     0.8620 ha         1 CVQ       0.175000
     48 H10          4.5130     0.9830    -1.0120 hn         1 CVQ       0.532000
     49 H11          6.2470    -2.7190    -2.0350 h1         1 CVQ       0.044700
     50 H12          5.3190    -2.2960    -3.4950 h1         1 CVQ       0.044700
     51 H13          6.7350    -1.3320    -3.0290 h1         1 CVQ       0.044700
     52 H14          4.0100    -3.5010    -1.9100 h4         1 CVQ       0.024100
     53 H15         -3.2570    -4.2740     2.1200 ha         1 CVQ       0.120000
     54 H16         -3.0370    -2.0850     2.8310 h1         1 CVQ       0.074700
     55 H17         -1.7720    -0.9840     3.3040 h1         1 CVQ       0.074700
     56 H18         -2.5350     2.9750     0.8200 ha         1 CVQ       0.147500
     57 H19         -5.3830     0.0990    -0.6930 ha         1 CVQ       0.147500
     58 H20         -5.3890     1.6830    -2.3690 h1         1 CVQ       0.049200
     59 H21         -6.4800     2.1280    -1.0450 h1         1 CVQ       0.049200
     60 H22         -6.8990     3.5900    -2.8560 h1         1 CVQ       0.031200
     61 H23         -6.1600     4.5230    -1.5560 h1         1 CVQ       0.031200
     62 H24         -5.1150     4.9820    -3.5480 ho         1 CVQ       0.447000
     63 O36          4.9260     3.0570    -0.7260 os         1 CVQ      -0.360100
@<TRIPOS>BOND
     1     1    10 ar  
     2     1    18 1   
     3     1    19 ar  
     4     2     8 ar  
     5     2    24 ar  
     6     2    39 1   
     7     3     5 1   
     8     3     9 ar  
     9     3    19 ar  
    10     4     5 1   
    11     4     6 ar  
    12     4     7 ar  
    13     5    23 2   
    14     6    24 ar  
    15     6    25 1   
    16     7     8 ar  
    17     7    40 1   
    18     8    41 1   
    19     9    22 ar  
    20    10    20 1   
    21    10    22 ar  
    22    11    42 1   
    23    11    43 1   
    24    11    44 1   
    25    11    63 1   
    26    12    13 ar  
    27    12    17 ar  
    28    12    63 1   
    29    13    14 ar  
    30    13    45 1   
    31    14    15 ar  
    32    15    16 ar  
    33    15    46 1   
    34    16    17 ar  
    35    16    47 1   
    36    17    18 1   
    37    18    48 1   
    38    20    21 1   
    39    21    49 1   
    40    21    50 1   
    41    21    51 1   
    42    22    52 1   
    43    23    25 1   
    44    24    53 1   
    45    25    26 1   
    46    26    27 1   
    47    26    54 1   
    48    26    55 1   
    49    27    28 ar  
    50    27    31 ar  
    51    28    29 ar  
    52    28    30 1   
    53    29    34 ar  
    54    29    56 1   
    55    31    32 1   
    56    31    33 ar  
    57    33    34 ar  
    58    33    57 1   
    59    34    35 1   
    60    35    36 1   
    61    36    37 1   
    62    36    58 1   
    63    36    59 1   
    64    37    38 1   
    65    37    60 1   
    66    37    61 1   
    67    38    62 1   
@<TRIPOS>SUBSTRUCTURE
     1 CVQ         1 TEMP              0 ****  ****    0 ROOT
