@<TRIPOS>MOLECULE
CVT
   47    49     1     0     0
SMALL
bcc


@<TRIPOS>ATOM
      1 C4           6.0130    -0.0680     0.1060 ca         1 CVT      -0.044000
      2 C14         -2.9490    -1.4100     0.0080 ca         1 CVT      -0.212000
      3 C5           6.5940     1.1300     0.5850 ca         1 CVT      -0.100000
      4 C6           5.8070     2.1700     0.9890 ca         1 CVT      -0.136000
      5 C7           4.0750    -1.4270    -0.4480 ca         1 CVT      -0.107000
      6 C8           4.9060    -2.4460    -0.8340 ca         1 CVT      -0.126000
      7 C9           6.3040    -2.3070    -0.7650 ca         1 CVT      -0.121000
      8 C10          6.8420    -1.1380    -0.3030 ca         1 CVT      -0.125000
      9 C12         -0.5990    -0.7560    -0.3040 c          1 CVT       0.697700
     10 C13         -2.0430    -0.3890    -0.2540 ca         1 CVT      -0.085600
     11 N1           1.5790     0.0310     0.0200 n2         1 CVT      -0.415300
     12 N2           0.2530     0.2350     0.0740 ns         1 CVT      -0.344900
     13 C3           4.5980    -0.2020     0.0350 ca         1 CVT      -0.006000
     14 C1           4.4110     2.0490     0.9240 ca         1 CVT      -0.115000
     15 C15         -4.3090    -1.1200     0.0680 ca         1 CVT       0.151100
     16 C16         -4.7550     0.1850    -0.1660 ca         1 CVT       0.045100
     17 C17         -3.8360     1.2000    -0.4460 ca         1 CVT       0.151100
     18 C18         -2.4740     0.9120    -0.4910 ca         1 CVT      -0.212000
     19 C19         -3.4920     3.4860    -0.9680 c3         1 CVT       0.120700
     20 C2           3.7920     0.9060     0.4600 ca         1 CVT      -0.109900
     21 C20         -6.5720     0.8570     1.1360 c3         1 CVT       0.125700
     22 C21         -4.8830    -3.3560     0.5980 c3         1 CVT       0.120700
     23 O1          -0.2180    -1.8610    -0.6420 o          1 CVT      -0.542100
     24 O2          -5.2670    -2.0190     0.3350 os         1 CVT      -0.298400
     25 O3          -6.0810     0.4610    -0.1410 os         1 CVT      -0.303900
     26 O4          -4.3640     2.4130    -0.6680 os         1 CVT      -0.298400
     27 H10         -2.5820    -2.4120     0.1760 ha         1 CVT       0.149500
     28 H2           7.6740     1.2080     0.6280 ha         1 CVT       0.132000
     29 H3           6.2480     3.0850     1.3590 ha         1 CVT       0.133000
     30 H8           1.9100     1.8870     0.8510 h4         1 CVT      -0.022200
     31 H4           3.0070    -1.5630    -0.5140 ha         1 CVT       0.170000
     32 H5           4.4790    -3.3710    -1.1990 ha         1 CVT       0.135000
     33 H6           6.9460    -3.1220    -1.0750 ha         1 CVT       0.131000
     34 H7           7.9170    -1.0150    -0.2410 ha         1 CVT       0.129000
     35 H9          -0.1070     1.0920     0.4790 hn         1 CVT       0.307500
     36 H1           3.8020     2.8840     1.2490 ha         1 CVT       0.124000
     37 H11         -1.7640     1.6870    -0.7420 ha         1 CVT       0.149500
     38 H12         -2.7880     3.6790    -0.1550 h1         1 CVT       0.044367
     39 H13         -2.9300     3.3080    -1.8890 h1         1 CVT       0.044367
     40 H14         -4.1190     4.3630    -1.1040 h1         1 CVT       0.044367
     41 H15         -7.6330     1.0710     1.0180 h1         1 CVT       0.035700
     42 H16         -6.4550     0.0620     1.8760 h1         1 CVT       0.035700
     43 H17         -6.0710     1.7560     1.5000 h1         1 CVT       0.035700
     44 H18         -4.3750    -3.8090    -0.2560 h1         1 CVT       0.044367
     45 H20         -4.2350    -3.4280     1.4750 h1         1 CVT       0.044367
     46 H19         -5.8000    -3.9050     0.7950 h1         1 CVT       0.044367
     47 C11          2.3330     0.9600     0.4520 ce         1 CVT       0.377800
@<TRIPOS>BOND
     1     1     3 ar  
     2     1     8 ar  
     3     1    13 ar  
     4     2    10 ar  
     5     2    15 ar  
     6     2    27 1   
     7     3     4 ar  
     8     3    28 1   
     9     4    14 ar  
    10     4    29 1   
    11     5     6 ar  
    12     5    13 ar  
    13     5    31 1   
    14     6     7 ar  
    15     6    32 1   
    16     7     8 ar  
    17     7    33 1   
    18     8    34 1   
    19     9    10 1   
    20     9    12 1   
    21     9    23 2   
    22    10    18 ar  
    23    11    12 1   
    24    11    47 2   
    25    12    35 1   
    26    13    20 ar  
    27    14    20 ar  
    28    14    36 1   
    29    15    16 ar  
    30    15    24 1   
    31    16    17 ar  
    32    16    25 1   
    33    17    18 ar  
    34    17    26 1   
    35    18    37 1   
    36    19    26 1   
    37    19    38 1   
    38    19    39 1   
    39    19    40 1   
    40    20    47 1   
    41    21    25 1   
    42    21    41 1   
    43    21    42 1   
    44    21    43 1   
    45    22    24 1   
    46    22    44 1   
    47    22    45 1   
    48    22    46 1   
    49    30    47 1   
@<TRIPOS>SUBSTRUCTURE
     1 CVT         1 TEMP              0 ****  ****    0 ROOT
