@<TRIPOS>MOLECULE
CVT
   47    49     1     0     0
SMALL
No Charge or Current Charge


@<TRIPOS>ATOM
      1 C4           6.0890    -0.1620    -0.0280 ca         1 CVT      -0.044000
      2 C14         -2.8160    -1.3830     0.3880 ca         1 CVT      -0.194000
      3 C5           6.7300     0.8900     0.6510 ca         1 CVT      -0.082000
      4 C6           5.9750     1.8380     1.3520 ca         1 CVT      -0.118000
      5 C7           4.0780    -1.3730    -0.6720 ca         1 CVT      -0.089000
      6 C8           4.8670    -2.3170    -1.3520 ca         1 CVT      -0.108000
      7 C9           6.2620    -2.1840    -1.3780 ca         1 CVT      -0.103000
      8 C10          6.8720    -1.1110    -0.7130 ca         1 CVT      -0.107000
      9 C12         -0.4640    -0.5010     0.0350 c          1 CVT       0.630700
     10 C13         -1.9760    -0.2920     0.0820 ca         1 CVT      -0.085600
     11 N1           1.6970     0.5910    -0.3690 n2         1 CVT      -0.415300
     12 N2           0.3150     0.6140    -0.2760 ns         1 CVT      -0.277900
     13 C3           4.6740    -0.2690    -0.0140 ca         1 CVT      -0.006000
     14 C1           4.5760     1.7470     1.3670 ca         1 CVT      -0.097000
     15 C15         -4.2180    -1.2370     0.4430 ca         1 CVT       0.151100
     16 C16         -4.8180     0.0180     0.1890 ca         1 CVT       0.045100
     17 C17         -3.9850     1.1350    -0.1220 ca         1 CVT       0.151100
     18 C18         -2.5790     0.9640    -0.1710 ca         1 CVT      -0.194000
     19 C19         -3.7710     3.5490    -0.6960 c3         1 CVT       0.143900
     20 C2           3.9070     0.7090     0.6860 ca         1 CVT      -0.109900
     21 C20         -7.0200     1.2320     0.0470 c3         1 CVT       0.148900
     22 C21         -4.5410    -3.6290     1.0180 c3         1 CVT       0.143900
     23 O1           0.0460    -1.5950     0.2640 o          1 CVT      -0.542100
     24 O2          -5.0440    -2.3090     0.7430 os         1 CVT      -0.321600
     25 O3          -6.2130     0.0620     0.2680 os         1 CVT      -0.327100
     26 O4          -4.5440     2.3780    -0.3750 os         1 CVT      -0.321600
     27 H10         -2.3600    -2.3490     0.5830 ha         1 CVT       0.131500
     28 H2           7.8150     0.9700     0.6410 ha         1 CVT       0.114000
     29 H3           6.4740     2.6490     1.8790 ha         1 CVT       0.115000
     30 H8           1.9550     1.1400     1.6170 h4         1 CVT      -0.022200
     31 H4           3.0040    -1.5300    -0.6560 ha         1 CVT       0.152000
     32 H5           4.3930    -3.1580    -1.8540 ha         1 CVT       0.117000
     33 H6           6.8700    -2.9170    -1.9040 ha         1 CVT       0.113000
     34 H7           7.9560    -1.0210    -0.7260 ha         1 CVT       0.111000
     35 H9          -0.1960     1.4730    -0.4500 hn         1 CVT       0.307500
     36 H1           4.0030     2.5020     1.9010 ha         1 CVT       0.106000
     37 H11         -1.9500     1.8140    -0.4080 ha         1 CVT       0.131500
     38 H12         -3.0830     3.8000     0.1210 h1         1 CVT       0.044367
     39 H13         -3.1930     3.3970    -1.6160 h1         1 CVT       0.044367
     40 H14         -4.4350     4.4090    -0.8530 h1         1 CVT       0.044367
     41 H15         -8.0810     0.9850     0.1710 h1         1 CVT       0.035700
     42 H16         -6.7740     2.0210     0.7690 h1         1 CVT       0.035700
     43 H17         -6.8830     1.6170    -0.9720 h1         1 CVT       0.035700
     44 H18         -3.9870    -4.0230     0.1560 h1         1 CVT       0.044367
     45 H20         -3.8780    -3.6210     1.8920 h1         1 CVT       0.044367
     46 H19         -5.3710    -4.3150     1.2290 h1         1 CVT       0.044367
     47 C11          2.4110     0.7480     0.7050 ce         1 CVT       0.377800
@<TRIPOS>BOND
     1     1     3 ar  
     2     1     8 ar  
     3     1    13 ar  
     4     2    10 ar  
     5     2    15 ar  
     6     2    27 1   
     7     3     4 ar  
     8     3    28 1   
     9     4    14 ar  
    10     4    29 1   
    11     5     6 ar  
    12     5    13 ar  
    13     5    31 1   
    14     6     7 ar  
    15     6    32 1   
    16     7     8 ar  
    17     7    33 1   
    18     8    34 1   
    19     9    10 1   
    20     9    12 1   
    21     9    23 2   
    22    10    18 ar  
    23    11    12 1   
    24    11    47 2   
    25    12    35 1   
    26    13    20 ar  
    27    14    20 ar  
    28    14    36 1   
    29    15    16 ar  
    30    15    24 1   
    31    16    17 ar  
    32    16    25 1   
    33    17    18 ar  
    34    17    26 1   
    35    18    37 1   
    36    19    26 1   
    37    19    38 1   
    38    19    39 1   
    39    19    40 1   
    40    20    47 1   
    41    21    25 1   
    42    21    41 1   
    43    21    42 1   
    44    21    43 1   
    45    22    24 1   
    46    22    44 1   
    47    22    45 1   
    48    22    46 1   
    49    30    47 1   
@<TRIPOS>SUBSTRUCTURE
     1 CVT         1 TEMP              0 ****  ****    0 ROOT
