@<TRIPOS>MOLECULE
CVU
   23    22     1     0     0
SMALL
No Charge or Current Charge


@<TRIPOS>ATOM
      1 C1          -2.3690    -0.8660     0.3840 c3         1 CVU       0.068600
      2 O1          -3.7160    -0.5240     0.7940 oh         1 CVU      -0.626000
      3 C2          -1.6390     0.2850    -0.3710 c          1 CVU       0.546100
      4 O2          -2.2190     1.0000    -1.1880 o          1 CVU      -0.488100
      5 C3          -0.2020     0.6480     0.1190 c3         1 CVU       0.044300
      6 O3           0.1030     2.0590    -0.0920 oh         1 CVU      -0.693000
      7 C4           0.8780    -0.2410    -0.5680 c3         1 CVU       0.112300
      8 O4           0.5410    -1.6270    -0.4210 oh         1 CVU      -0.649000
      9 C5           2.3090    -0.0460     0.0260 c3         1 CVU       0.140300
     10 O5           2.3650    -0.6530     1.3320 oh         1 CVU      -0.722000
     11 C6           3.4150    -0.6740    -0.8470 c3         1 CVU      -0.127100
     12 H1          -1.7680    -1.1360     1.2620 h1         1 CVU       0.038700
     13 HC1         -2.3780    -1.7390    -0.2830 h1         1 CVU       0.038700
     14 HO1         -4.1040    -1.3170     1.2300 ho         1 CVU       0.447000
     15 H3          -0.1790     0.4270     1.1950 h1         1 CVU       0.093700
     16 HO3         -0.5220     2.3950    -0.7810 ho         1 CVU       0.516000
     17 H4           0.9050     0.0270    -1.6350 h1         1 CVU       0.086700
     18 HO4          1.0990    -1.9160     0.3410 ho         1 CVU       0.440000
     19 H5           2.5090     1.0340     0.0930 h1         1 CVU       0.086700
     20 HO5          3.2140    -0.3730     1.7480 ho         1 CVU       0.501000
     21 H61          3.3970    -0.2450    -1.8560 hc         1 CVU       0.048700
     22 H62          4.4050    -0.4800    -0.4180 hc         1 CVU       0.048700
     23 H63          3.2860    -1.7600    -0.9360 hc         1 CVU       0.048700
@<TRIPOS>BOND
     1     1     2 1   
     2     1     3 1   
     3     1    12 1   
     4     1    13 1   
     5     2    14 1   
     6     3     4 2   
     7     3     5 1   
     8     5     6 1   
     9     5     7 1   
    10     5    15 1   
    11     6    16 1   
    12     7     8 1   
    13     7     9 1   
    14     7    17 1   
    15     8    18 1   
    16     9    10 1   
    17     9    11 1   
    18     9    19 1   
    19    10    20 1   
    20    11    21 1   
    21    11    22 1   
    22    11    23 1   
@<TRIPOS>SUBSTRUCTURE
     1 CVU         1 TEMP              0 ****  ****    0 ROOT
