@<TRIPOS>MOLECULE
CVU
   23    22     1     0     0
SMALL
abcg2


@<TRIPOS>ATOM
      1 C1          -2.3600    -0.7170     0.6320 c3         1 CVU       0.068600
      2 O1          -3.5540    -1.0390    -0.0120 oh         1 CVU      -0.626000
      3 C2          -1.5500     0.2170    -0.2140 c          1 CVU       0.546100
      4 O2          -1.9610     0.6990    -1.2420 o          1 CVU      -0.488100
      5 C3          -0.1590     0.5780     0.3010 c3         1 CVU       0.044300
      6 O3           0.0420     1.9640     0.2330 oh         1 CVU      -0.693000
      7 C4           0.8880    -0.2040    -0.5140 c3         1 CVU       0.112300
      8 O4           0.5890    -1.5810    -0.4940 oh         1 CVU      -0.649000
      9 C5           2.3190     0.0920    -0.0550 c3         1 CVU       0.140300
     10 O5           2.4940    -0.2910     1.2990 oh         1 CVU      -0.722000
     11 C6           3.3480    -0.5600    -0.9640 c3         1 CVU      -0.127100
     12 H1          -2.5130    -0.2080     1.5970 h1         1 CVU       0.038700
     13 HC1         -1.7390    -1.5940     0.8600 h1         1 CVU       0.038700
     14 HO1         -4.0420    -1.6460     0.5510 ho         1 CVU       0.447000
     15 H3          -0.0710     0.3010     1.3570 h1         1 CVU       0.093700
     16 HO3         -0.1060     2.2520    -0.6760 ho         1 CVU       0.516000
     17 H4           0.7990     0.1080    -1.5610 h1         1 CVU       0.086700
     18 HO4          0.7430    -1.9180     0.3960 ho         1 CVU       0.440000
     19 H5           2.4580     1.1760    -0.0960 h1         1 CVU       0.086700
     20 HO5          2.8640    -1.1790     1.3280 ho         1 CVU       0.501000
     21 H61          3.2170    -0.2380    -1.9970 hc         1 CVU       0.048700
     22 H62          4.3580    -0.2880    -0.6570 hc         1 CVU       0.048700
     23 H63          3.2660    -1.6490    -0.9430 hc         1 CVU       0.048700
@<TRIPOS>BOND
     1     1     2 1   
     2     1     3 1   
     3     1    12 1   
     4     1    13 1   
     5     2    14 1   
     6     3     4 2   
     7     3     5 1   
     8     5     6 1   
     9     5     7 1   
    10     5    15 1   
    11     6    16 1   
    12     7     8 1   
    13     7     9 1   
    14     7    17 1   
    15     8    18 1   
    16     9    10 1   
    17     9    11 1   
    18     9    19 1   
    19    10    20 1   
    20    11    21 1   
    21    11    22 1   
    22    11    23 1   
@<TRIPOS>SUBSTRUCTURE
     1 CVU         1 TEMP              0 ****  ****    0 ROOT
