@<TRIPOS>MOLECULE
CVV
   60    66     1     0     0
SMALL
bcc


@<TRIPOS>ATOM
      1 N1           0.3650     0.1110    -0.2460 ns         1 CVV      -0.572900
      2 C4          -4.3470     0.6040    -1.2850 c6         1 CVV       0.200500
      3 C5          -2.8660     0.3120    -0.9800 c6         1 CVV      -0.015500
      4 C6          -2.0870    -0.2230    -2.1430 c2         1 CVV      -0.132200
      5 C7          -0.9640    -0.9070    -1.9520 c2         1 CVV      -0.195200
      6 C8          -0.3930    -1.0910    -0.5700 c6         1 CVV       0.134900
      7 C10          2.0170     1.4390     0.9020 ca         1 CVV      -0.153600
      8 C13          3.3740     3.8300     1.3780 ca         1 CVV      -0.078000
      9 C15          1.3910     2.6590     0.6700 ca         1 CVV      -0.092000
     10 C17         -2.8400    -0.7100     0.1600 c5         1 CVV      -0.024700
     11 C20         -3.3050    -4.3090    -0.3270 ca         1 CVV       0.126100
     12 C21         -4.4640    -4.3640    -1.1080 ca         1 CVV      -0.135000
     13 C22         -3.5300    -0.1040     1.3850 c6         1 CVV      -0.056400
     14 C26         -7.9950     3.3910     0.7160 cx         1 CVV      -0.131900
     15 C1          -5.1010    -3.2130    -1.5590 ca         1 CVV      -0.123000
     16 C11          3.3220     1.4140     1.3910 ca         1 CVV      -0.046000
     17 C12          3.9880     2.6070     1.6130 ca         1 CVV       0.045900
     18 C14          2.0680     3.8450     0.9100 ca         1 CVV      -0.139000
     19 C16         -1.4700    -1.3260     0.5090 c5         1 CVV       0.145100
     20 C18         -3.5550    -1.9200    -0.3480 ca         1 CVV      -0.125300
     21 C19         -2.8590    -3.0450     0.0230 ca         1 CVV       0.035100
     22 C2          -4.6360    -1.9460    -1.1980 ca         1 CVV      -0.061300
     23 C23         -4.9320     0.3840     1.0570 c6         1 CVV       0.172800
     24 C25         -6.5780     2.9080     0.6550 cx         1 CVV      -0.125700
     25 C27         -7.4390     2.5650     1.8340 cx         1 CVV      -0.131900
     26 O3          -1.7010    -2.7450     0.6670 os         1 CVV      -0.311900
     27 C3          -5.1160    -0.6480    -1.7850 c6         1 CVV      -0.053100
     28 O4          -2.6770    -5.4600     0.0080 oh         1 CVV      -0.494100
     29 C9           1.3310     0.1260     0.6900 c          1 CVV       0.674700
     30 H1           0.2440     0.9100    -0.8470 hn         1 CVV       0.320500
     31 H2          -4.3790     1.3430    -2.0900 h1         1 CVV       0.056700
     32 H3          -2.4240     1.2610    -0.6480 hc         1 CVV       0.075700
     33 H4          -2.4510    -0.0440    -3.1500 ha         1 CVV       0.132000
     34 H5          -0.3960    -1.2980    -2.7870 ha         1 CVV       0.139000
     35 H6           0.2930    -1.9410    -0.5570 h1         1 CVV       0.091700
     36 H7           3.8920     4.7610     1.5580 ha         1 CVV       0.147000
     37 H8           0.3640     2.7040     0.3280 ha         1 CVV       0.135000
     38 H9          -4.8410    -5.3360    -1.4020 ha         1 CVV       0.147000
     39 H10         -3.5790    -0.8330     2.1970 hc         1 CVV       0.054200
     40 H11         -2.9250     0.7370     1.7380 hc         1 CVV       0.054200
     41 H14         -8.1710     4.4450     0.8890 hc         1 CVV       0.070950
     42 H15         -8.7160     2.9260     0.0530 hc         1 CVV       0.070950
     43 H16         -5.9550    -3.3120    -2.2190 ha         1 CVV       0.133000
     44 H17          3.8010     0.4630     1.5830 ha         1 CVV       0.168000
     45 H18          1.5760     4.7930     0.7370 ha         1 CVV       0.139000
     46 H19         -1.0980    -0.9680     1.4700 h1         1 CVV       0.096700
     47 H21         -5.6140    -0.4740     0.9320 h1         1 CVV       0.041200
     48 H22         -5.3130     0.9490     1.9080 h1         1 CVV       0.041200
     49 H23         -5.8120     3.6590     0.8190 hc         1 CVV       0.086700
     50 H24         -7.2310     3.0490     2.7800 hc         1 CVV       0.070950
     51 H25         -7.7840     1.5420     1.9260 hc         1 CVV       0.070950
     52 H26         -6.1880    -0.5120    -1.6120 hc         1 CVV       0.051700
     53 H27         -5.0110    -0.7090    -2.8730 hc         1 CVV       0.051700
     54 H28         -1.8850    -5.2770     0.5250 ho         1 CVV       0.440000
     55 N2          -4.9250     1.2470    -0.1110 n3         1 CVV      -0.736600
     56 C24         -6.2100     1.8670    -0.3710 c3         1 CVV       0.207800
     57 I1           5.9660     2.5650     2.3260 i          1 CVV      -0.164900
     58 O2           1.6430    -0.8640     1.3350 o          1 CVV      -0.592100
     59 H12         -6.1500     2.3520    -1.3500 h1         1 CVV       0.031700
     60 H13         -7.0320     1.1320    -0.4430 h1         1 CVV       0.031700
@<TRIPOS>BOND
     1     1     6 1   
     2     1    29 1   
     3     1    30 1   
     4     2     3 1   
     5     2    27 1   
     6     2    31 1   
     7     2    55 1   
     8     3     4 1   
     9     3    10 1   
    10     3    32 1   
    11     4     5 2   
    12     4    33 1   
    13     5     6 1   
    14     5    34 1   
    15     6    19 1   
    16     6    35 1   
    17     7     9 ar  
    18     7    16 ar  
    19     7    29 1   
    20     8    17 ar  
    21     8    18 ar  
    22     8    36 1   
    23     9    18 ar  
    24     9    37 1   
    25    10    13 1   
    26    10    19 1   
    27    10    20 1   
    28    11    12 ar  
    29    11    21 ar  
    30    11    28 1   
    31    12    15 ar  
    32    12    38 1   
    33    13    23 1   
    34    13    39 1   
    35    13    40 1   
    36    14    24 1   
    37    14    25 1   
    38    14    41 1   
    39    14    42 1   
    40    15    22 ar  
    41    15    43 1   
    42    16    17 ar  
    43    16    44 1   
    44    17    57 1   
    45    18    45 1   
    46    19    26 1   
    47    19    46 1   
    48    20    21 ar  
    49    20    22 ar  
    50    21    26 1   
    51    22    27 1   
    52    23    47 1   
    53    23    48 1   
    54    23    55 1   
    55    24    25 1   
    56    24    49 1   
    57    24    56 1   
    58    25    50 1   
    59    25    51 1   
    60    27    52 1   
    61    27    53 1   
    62    28    54 1   
    63    29    58 2   
    64    55    56 1   
    65    56    59 1   
    66    56    60 1   
@<TRIPOS>SUBSTRUCTURE
     1 CVV         1 TEMP              0 ****  ****    0 ROOT
