@<TRIPOS>MOLECULE
CVV
   60    66     1     0     0
SMALL
No Charge or Current Charge


@<TRIPOS>ATOM
      1 N1           0.5570     0.1160    -0.3190 ns         1 CVV      -0.505900
      2 C4          -4.5050     0.7350    -1.2640 c6         1 CVV       0.200500
      3 C5          -2.9850     0.5320    -0.9310 c6         1 CVV      -0.015500
      4 C6          -2.1470     0.0960    -2.1300 c2         1 CVV      -0.182200
      5 C7          -1.0000    -0.5920    -1.9840 c2         1 CVV      -0.245200
      6 C8          -0.4010    -0.9510    -0.6280 c6         1 CVV       0.134900
      7 C10          2.4030     1.2980     0.8010 ca         1 CVV      -0.153600
      8 C13          4.0530     3.5740     1.1680 ca         1 CVV      -0.060000
      9 C15          2.2080     2.4670     0.0220 ca         1 CVV      -0.074000
     10 C17         -2.8870    -0.5300     0.1940 c5         1 CVV      -0.024700
     11 C20         -3.2200    -4.1840    -0.2570 ca         1 CVV       0.126100
     12 C21         -4.3620    -4.3190    -1.0750 ca         1 CVV      -0.117000
     13 C22         -3.6490     0.0020     1.4440 c6         1 CVV      -0.056400
     14 C26         -8.5750     3.1060     0.7890 cx         1 CVV      -0.131900
     15 C1          -5.0350    -3.1690    -1.5560 ca         1 CVV      -0.105000
     16 C11          3.4390     1.2950     1.7640 ca         1 CVV      -0.028000
     17 C12          4.2560     2.4240     1.9440 ca         1 CVV       0.183000
     18 C14          3.0280     3.5940     0.2070 ca         1 CVV      -0.121000
     19 C16         -1.4580    -1.1320     0.5220 c5         1 CVV       0.168300
     20 C18         -3.5090    -1.7890    -0.3030 ca         1 CVV      -0.125300
     21 C19         -2.8020    -2.8900     0.0960 ca         1 CVV       0.035100
     22 C2          -4.5940    -1.8820    -1.1790 ca         1 CVV      -0.061300
     23 C23         -5.1110     0.4100     1.1240 c6         1 CVV       0.172800
     24 C25         -7.1060     2.7490     0.7470 cx         1 CVV      -0.125700
     25 C27         -7.9800     2.2360     1.8700 cx         1 CVV      -0.131900
     26 O3          -1.6580    -2.5760     0.7840 os         1 CVV      -0.335100
     27 C3          -5.1720    -0.5960    -1.7900 c6         1 CVV      -0.053100
     28 O4          -2.5180    -5.2800     0.1550 oh         1 CVV      -0.533100
     29 C9           1.5450     0.0620     0.6390 c          1 CVV       0.607700
     30 H1           0.4850     0.9740    -0.8470 hn         1 CVV       0.320500
     31 H2          -4.5650     1.4740    -2.0780 h1         1 CVV       0.056700
     32 H3          -2.5780     1.4860    -0.5690 hc         1 CVV       0.075700
     33 H4          -2.5300     0.3430    -3.1220 ha         1 CVV       0.182000
     34 H5          -0.4300    -0.9120    -2.8580 ha         1 CVV       0.189000
     35 H6           0.1670    -1.8890    -0.7280 h1         1 CVV       0.091700
     36 H7           4.6870     4.4440     1.3110 ha         1 CVV       0.129000
     37 H8           1.4250     2.5220    -0.7300 ha         1 CVV       0.117000
     38 H9          -4.7000    -5.3090    -1.3720 ha         1 CVV       0.129000
     39 H10         -3.6510    -0.7570     2.2380 hc         1 CVV       0.054200
     40 H11         -3.1150     0.8710     1.8510 hc         1 CVV       0.054200
     41 H14         -8.8400     4.1280     1.0490 hc         1 CVV       0.070950
     42 H15         -9.2380     2.6340     0.0680 hc         1 CVV       0.070950
     43 H16         -5.8770    -3.2790    -2.2360 ha         1 CVV       0.115000
     44 H17          3.6190     0.4180     2.3800 ha         1 CVV       0.150000
     45 H18          2.8700     4.4860    -0.3960 ha         1 CVV       0.121000
     46 H19         -1.0440    -0.6820     1.4330 h1         1 CVV       0.096700
     47 H21         -5.7110    -0.4960     0.9570 h1         1 CVV       0.041200
     48 H22         -5.5270     0.9010     2.0150 h1         1 CVV       0.041200
     49 H23         -6.4080     3.5470     0.9880 hc         1 CVV       0.086700
     50 H24         -7.8420     2.6720     2.8570 hc         1 CVV       0.070950
     51 H25         -8.2420     1.1800     1.8730 hc         1 CVV       0.070950
     52 H26         -6.2610    -0.5790    -1.6610 hc         1 CVV       0.051700
     53 H27         -5.0140    -0.6460    -2.8750 hc         1 CVV       0.051700
     54 H28         -1.7630    -4.9530     0.6920 ho         1 CVV       0.479000
     55 N2          -5.1950     1.3140    -0.0620 n3         1 CVV      -0.736600
     56 C24         -6.5640     1.8170    -0.3330 c3         1 CVV       0.207800
     57 I1           5.8350     2.3890     3.4280 i          1 CVV      -0.302000
     58 O2           1.7100    -0.9390     1.3200 o          1 CVV      -0.592100
     59 H12         -6.5640     2.3780    -1.2770 h1         1 CVV       0.031700
     60 H13         -7.2630     0.9800    -0.4590 h1         1 CVV       0.031700
@<TRIPOS>BOND
     1     1     6 1   
     2     1    29 1   
     3     1    30 1   
     4     2     3 1   
     5     2    27 1   
     6     2    31 1   
     7     2    55 1   
     8     3     4 1   
     9     3    10 1   
    10     3    32 1   
    11     4     5 2   
    12     4    33 1   
    13     5     6 1   
    14     5    34 1   
    15     6    19 1   
    16     6    35 1   
    17     7     9 ar  
    18     7    16 ar  
    19     7    29 1   
    20     8    17 ar  
    21     8    18 ar  
    22     8    36 1   
    23     9    18 ar  
    24     9    37 1   
    25    10    13 1   
    26    10    19 1   
    27    10    20 1   
    28    11    12 ar  
    29    11    21 ar  
    30    11    28 1   
    31    12    15 ar  
    32    12    38 1   
    33    13    23 1   
    34    13    39 1   
    35    13    40 1   
    36    14    24 1   
    37    14    25 1   
    38    14    41 1   
    39    14    42 1   
    40    15    22 ar  
    41    15    43 1   
    42    16    17 ar  
    43    16    44 1   
    44    17    57 1   
    45    18    45 1   
    46    19    26 1   
    47    19    46 1   
    48    20    21 ar  
    49    20    22 ar  
    50    21    26 1   
    51    22    27 1   
    52    23    47 1   
    53    23    48 1   
    54    23    55 1   
    55    24    25 1   
    56    24    49 1   
    57    24    56 1   
    58    25    50 1   
    59    25    51 1   
    60    27    52 1   
    61    27    53 1   
    62    28    54 1   
    63    29    58 2   
    64    55    56 1   
    65    56    59 1   
    66    56    60 1   
@<TRIPOS>SUBSTRUCTURE
     1 CVV         1 TEMP              0 ****  ****    0 ROOT
