@<TRIPOS>MOLECULE
CVW
   27    28     1     0     0
SMALL
abcg2


@<TRIPOS>ATOM
      1 C10        -12.6910    14.2730    85.5480 ca         1 CVW      -0.109300
      2 C13        -12.7750    13.1320    86.5290 c3         1 CVW      -0.039800
      3 C02        -14.5500    13.6400    80.9310 c3         1 CVW       0.149800
      4 C03        -13.1020    14.1360    80.8910 c3         1 CVW      -0.002200
      5 C04        -12.8380    15.2470    81.8570 cc         1 CVW      -0.137400
      6 C05        -12.6690    16.5770    81.5670 cd         1 CVW      -0.157100
      7 C07        -12.5250    16.4380    83.8010 ca         1 CVW      -0.048200
      8 C08        -12.3850    16.6740    85.1680 ca         1 CVW      -0.127000
      9 C09        -12.4720    15.5870    86.0210 ca         1 CVW      -0.090000
     10 C11        -12.8300    14.0560    84.1850 ca         1 CVW      -0.060000
     11 C12        -12.7500    15.1340    83.2900 ca         1 CVW      -0.092800
     12 N01        -14.7380    12.5110    80.0100 n8         1 CVW      -1.005200
     13 N06        -12.4820    17.2970    82.7280 na         1 CVW      -0.235700
     14 H1         -11.8600    13.0500    87.1210 hc         1 CVW       0.038367
     15 H2         -13.6000    13.2730    87.2330 hc         1 CVW       0.038367
     16 H3         -12.9300    12.1840    86.0140 hc         1 CVW       0.038367
     17 H4         -15.2160    14.4870    80.7150 h1         1 CVW       0.031700
     18 H5         -14.7880    13.2960    81.9400 h1         1 CVW       0.031700
     19 H6         -12.4440    13.2870    81.1000 hc         1 CVW       0.049700
     20 H7         -12.8730    14.4720    79.8750 hc         1 CVW       0.049700
     21 H8         -12.6640    17.0740    80.6090 h4         1 CVW       0.210000
     22 H9         -12.2130    17.6730    85.5510 ha         1 CVW       0.112000
     23 H10        -12.3670    15.7450    87.0890 ha         1 CVW       0.108000
     24 H11        -12.9990    13.0510    83.8140 ha         1 CVW       0.116000
     25 H12        -15.6950    12.1760    80.0680 hn         1 CVW       0.391500
     26 H13        -14.6110    12.8290    79.0540 hn         1 CVW       0.391500
     27 H15        -12.3230    18.2890    82.7770 hn         1 CVW       0.349000
@<TRIPOS>BOND
     1     1     2 1   
     2     1     9 ar  
     3     1    10 ar  
     4     2    14 1   
     5     2    15 1   
     6     2    16 1   
     7     3     4 1   
     8     3    12 1   
     9     3    17 1   
    10     3    18 1   
    11     4     5 1   
    12     4    19 1   
    13     4    20 1   
    14     5     6 2   
    15     5    11 1   
    16     6    13 1   
    17     6    21 1   
    18     7     8 ar  
    19     7    11 ar  
    20     7    13 1   
    21     8     9 ar  
    22     8    22 1   
    23     9    23 1   
    24    10    11 ar  
    25    10    24 1   
    26    12    25 1   
    27    12    26 1   
    28    13    27 1   
@<TRIPOS>SUBSTRUCTURE
     1 CVW         1 TEMP              0 ****  ****    0 ROOT
