@<TRIPOS>MOLECULE
CVW
   27    28     1     0     0
SMALL
No Charge or Current Charge


@<TRIPOS>ATOM
      1 C10        -12.6880    14.2780    85.5390 ca         1 CVW      -0.109300
      2 C13        -12.7920    13.1070    86.5040 c3         1 CVW      -0.039800
      3 C02        -14.5460    13.6000    80.9880 c3         1 CVW       0.149800
      4 C03        -13.0950    14.1250    80.9090 c3         1 CVW      -0.002200
      5 C04        -12.8310    15.2610    81.8650 cc         1 CVW      -0.137400
      6 C05        -12.6450    16.6040    81.5490 cd         1 CVW      -0.157100
      7 C07        -12.5010    16.4350    83.7720 ca         1 CVW      -0.048200
      8 C08        -12.3560    16.6800    85.1440 ca         1 CVW      -0.127000
      9 C09        -12.4540    15.5870    86.0310 ca         1 CVW      -0.090000
     10 C11        -12.8310    14.0670    84.1480 ca         1 CVW      -0.060000
     11 C12        -12.7320    15.1760    83.2950 ca         1 CVW      -0.092800
     12 N01        -14.7950    12.4930    80.0380 n8         1 CVW      -1.005200
     13 N06        -12.4390    17.3480    82.7370 na         1 CVW      -0.235700
     14 H1         -12.1550    13.2560    87.3830 hc         1 CVW       0.038367
     15 H2         -13.8230    12.9800    86.8540 hc         1 CVW       0.038367
     16 H3         -12.4820    12.1680    86.0290 hc         1 CVW       0.038367
     17 H4         -15.2440    14.4190    80.7650 h1         1 CVW       0.031700
     18 H5         -14.7530    13.2410    82.0060 h1         1 CVW       0.031700
     19 H6         -12.4020    13.3020    81.1230 hc         1 CVW       0.049700
     20 H7         -12.8860    14.4520    79.8840 hc         1 CVW       0.049700
     21 H8         -12.6480    17.0800    80.5720 h4         1 CVW       0.210000
     22 H9         -12.1730    17.6850    85.5170 ha         1 CVW       0.112000
     23 H10        -12.3460    15.7540    87.1000 ha         1 CVW       0.108000
     24 H11        -13.0110    13.0720    83.7490 ha         1 CVW       0.116000
     25 H12        -15.7860    12.2230    80.0930 hn         1 CVW       0.391500
     26 H13        -14.6970    12.8470    79.0790 hn         1 CVW       0.391500
     27 H15        -12.2770    18.3480    82.8130 hn         1 CVW       0.349000
@<TRIPOS>BOND
     1     1     2 1   
     2     1     9 ar  
     3     1    10 ar  
     4     2    14 1   
     5     2    15 1   
     6     2    16 1   
     7     3     4 1   
     8     3    12 1   
     9     3    17 1   
    10     3    18 1   
    11     4     5 1   
    12     4    19 1   
    13     4    20 1   
    14     5     6 2   
    15     5    11 1   
    16     6    13 1   
    17     6    21 1   
    18     7     8 ar  
    19     7    11 ar  
    20     7    13 1   
    21     8     9 ar  
    22     8    22 1   
    23     9    23 1   
    24    10    11 ar  
    25    10    24 1   
    26    12    25 1   
    27    12    26 1   
    28    13    27 1   
@<TRIPOS>SUBSTRUCTURE
     1 CVW         1 TEMP              0 ****  ****    0 ROOT
