@<TRIPOS>MOLECULE
CVX
   21    20     1     0     0
SMALL
No Charge or Current Charge


@<TRIPOS>ATOM
      1 C5           4.6880    -0.3980     0.1280 c3         1 CVX      -0.085100
      2 C4           3.3990     0.4170    -0.0950 c3         1 CVX      -0.078400
      3 C3           2.1140    -0.4200     0.0870 c3         1 CVX      -0.088400
      4 C2           0.8270     0.3980    -0.1370 c3         1 CVX       0.230600
      5 O3          -0.2830    -0.4790     0.0580 os         1 CVX      -0.609400
      6 P           -1.7680     0.1210    -0.1160 p5         1 CVX       1.403400
      7 C1          -2.7130    -1.4050     0.2420 c3         1 CVX      -0.451100
      8 O2          -2.0380     0.5640    -1.5160 o          1 CVX      -0.836000
      9 OX0         -2.0820     1.1600     0.9110 o          1 CVX      -0.836000
     10 H51C         5.5710     0.2370    -0.0120 hc         1 CVX       0.021367
     11 H52C         4.7170    -0.8070     1.1450 hc         1 CVX       0.021367
     12 H53C         4.7480    -1.2310    -0.5830 hc         1 CVX       0.021367
     13 H41C         3.3860     1.2610     0.6050 hc         1 CVX       0.032700
     14 H42C         3.4170     0.8410    -1.1070 hc         1 CVX       0.032700
     15 H31C         2.1290    -1.2620    -0.6150 hc         1 CVX       0.039700
     16 H32C         2.0980    -0.8410     1.1000 hc         1 CVX       0.039700
     17 H21C         0.7950     1.2330     0.5760 h1         1 CVX       0.015200
     18 H22C         0.8260     0.8080    -1.1560 h1         1 CVX       0.015200
     19 H11C        -2.4760    -1.7550     1.2520 hc         1 CVX       0.037033
     20 H12C        -3.7860    -1.1980     0.1720 hc         1 CVX       0.037033
     21 H13C        -2.4450    -2.1810    -0.4820 hc         1 CVX       0.037033
@<TRIPOS>BOND
     1     1     2 1   
     2     1    10 1   
     3     1    11 1   
     4     1    12 1   
     5     2     3 1   
     6     2    13 1   
     7     2    14 1   
     8     3     4 1   
     9     3    15 1   
    10     3    16 1   
    11     4     5 1   
    12     4    17 1   
    13     4    18 1   
    14     5     6 1   
    15     6     7 1   
    16     6     8 1   
    17     6     9 1   
    18     7    19 1   
    19     7    20 1   
    20     7    21 1   
@<TRIPOS>SUBSTRUCTURE
     1 CVX         1 TEMP              0 ****  ****    0 ROOT
