@<TRIPOS>MOLECULE
CVX
   21    20     1     0     0
SMALL
abcg2


@<TRIPOS>ATOM
      1 C5           4.6620    -0.3630     0.0190 c3         1 CVX      -0.085100
      2 C4           3.3700     0.4420     0.0070 c3         1 CVX      -0.078400
      3 C3           2.1320    -0.4460     0.0460 c3         1 CVX      -0.088400
      4 C2           0.8470     0.3590     0.0220 c3         1 CVX       0.230600
      5 O3          -0.2590    -0.5180     0.1210 os         1 CVX      -0.609400
      6 P           -1.7540     0.0580    -0.3080 p5         1 CVX       1.403400
      7 C1          -2.7400    -1.3280     0.3390 c3         1 CVX      -0.451100
      8 O2          -1.8490     0.1010    -1.8120 o          1 CVX      -0.836000
      9 OX0         -2.0370     1.3160     0.4730 o          1 CVX      -0.836000
     10 H51C         5.5400     0.2840    -0.0020 hc         1 CVX       0.021367
     11 H52C         4.7300    -0.9830     0.9150 hc         1 CVX       0.021367
     12 H53C         4.7210    -1.0270    -0.8460 hc         1 CVX       0.021367
     13 H41C         3.3560     1.1240     0.8620 hc         1 CVX       0.032700
     14 H42C         3.3400     1.0730    -0.8860 hc         1 CVX       0.032700
     15 H31C         2.1470    -1.1330    -0.8060 hc         1 CVX       0.039700
     16 H32C         2.1570    -1.0650     0.9500 hc         1 CVX       0.039700
     17 H21C         0.8440     1.0760     0.8520 h1         1 CVX       0.015200
     18 H22C         0.8090     0.9470    -0.9050 h1         1 CVX       0.015200
     19 H11C        -2.6480    -1.4200     1.4210 hc         1 CVX       0.037033
     20 H12C        -3.7930    -1.1580     0.1080 hc         1 CVX       0.037033
     21 H13C        -2.4520    -2.2770    -0.1130 hc         1 CVX       0.037033
@<TRIPOS>BOND
     1     1     2 1   
     2     1    10 1   
     3     1    11 1   
     4     1    12 1   
     5     2     3 1   
     6     2    13 1   
     7     2    14 1   
     8     3     4 1   
     9     3    15 1   
    10     3    16 1   
    11     4     5 1   
    12     4    17 1   
    13     4    18 1   
    14     5     6 1   
    15     6     7 1   
    16     6     8 1   
    17     6     9 1   
    18     7    19 1   
    19     7    20 1   
    20     7    21 1   
@<TRIPOS>SUBSTRUCTURE
     1 CVX         1 TEMP              0 ****  ****    0 ROOT
