@<TRIPOS>MOLECULE
CVY
   61    65     1     0     0
SMALL
abcg2


@<TRIPOS>ATOM
      1 C10        -16.2890     0.0010    18.4290 ca         1 CVY      -0.121600
      2 C11        -15.9360     0.8320    19.5000 ca         1 CVY      -0.123300
      3 C12        -15.0700     0.3730    20.4770 ca         1 CVY      -0.140000
      4 C13        -14.5300    -0.9160    20.4320 ca         1 CVY       0.005000
      5 C14        -14.8790    -1.7430    19.3660 ca         1 CVY      -0.111000
      6 C15        -15.7420    -1.2730    18.3940 ca         1 CVY      -0.056000
      7 C17        -13.1640    -2.5000    21.7500 c          1 CVY       0.672100
      8 C20        -11.6230    -3.6140    23.2840 ca         1 CVY      -0.055000
      9 C21        -11.1040    -4.5720    22.4220 ca         1 CVY      -0.053000
     10 C22        -10.3670    -5.6400    22.9160 ca         1 CVY      -0.191300
     11 C23        -10.1100    -5.7630    24.2730 ca         1 CVY      -0.052000
     12 C24        -10.6120    -4.8090    25.1450 ca         1 CVY      -0.136000
     13 C25        -11.3610    -3.7680    24.6450 ca         1 CVY       0.155000
     14 C01        -13.1530    -0.1250    14.5610 ca         1 CVY      -0.039200
     15 C02        -14.0620    -1.1740    14.3320 ca         1 CVY      -0.212900
     16 C03        -15.3520    -1.0930    14.8730 ca         1 CVY      -0.038000
     17 C04        -15.6860     0.0230    15.6110 ca         1 CVY      -0.094000
     18 C05        -14.7580     1.0660    15.8200 ca         1 CVY      -0.077000
     19 C06        -13.4860     1.0080    15.3090 ca         1 CVY      -0.123000
     20 C08        -17.3470     0.3240    17.4200 c          1 CVY       0.620700
     21 C27         -9.9040    -6.6710    21.9360 c3         1 CVY       0.360300
     22 C31        -16.4790     2.2260    19.6550 c3         1 CVY       0.358300
     23 C35        -13.3200    -2.1180    13.5510 cc         1 CVY       0.464500
     24 C38        -13.7200    -3.4090    13.0250 cc         1 CVY      -0.229900
     25 C39        -14.9390    -4.1040    13.1460 cc         1 CVY       0.261900
     26 C42        -12.9310    -4.2700    12.2810 cd         1 CVY      -0.133000
     27 F26        -11.8510    -2.8570    25.4920 f          1 CVY      -0.175000
     28 F28         -9.4240    -6.1160    20.8150 f          1 CVY      -0.110333
     29 F29         -8.9410    -7.4600    22.4210 f          1 CVY      -0.110333
     30 F30        -10.9160    -7.4720    21.5700 f          1 CVY      -0.110333
     31 F32        -16.4990     2.8930    18.4950 f          1 CVY      -0.108667
     32 F33        -15.7350     2.9560    20.4970 f          1 CVY      -0.108667
     33 F34        -17.7260     2.2330    20.1370 f          1 CVY      -0.108667
     34 N07        -17.0000     0.1590    16.1240 ns         1 CVY      -0.162000
     35 N16        -13.6630    -1.2580    21.4600 ns         1 CVY      -0.158000
     36 N19        -12.3250    -2.4970    22.8350 ns         1 CVY      -0.166000
     37 N36        -12.1080    -1.6590    13.3300 nd         1 CVY      -0.530100
     38 N37        -12.0110    -0.4760    13.9330 na         1 CVY      -0.054400
     39 N40        -14.8980    -5.2670    12.5240 nd         1 CVY      -0.526800
     40 N41        -13.6770    -5.3480    12.0070 na         1 CVY       0.135800
     41 O09        -18.4730     0.6390    17.7610 o          1 CVY      -0.569100
     42 O18        -13.4160    -3.4990    21.1080 o          1 CVY      -0.592100
     43 H121       -14.8020     1.0160    21.3050 ha         1 CVY       0.128000
     44 H141       -14.4970    -2.7460    19.2820 ha         1 CVY       0.159000
     45 H151       -16.0100    -1.9450    17.5900 ha         1 CVY       0.132000
     46 H211       -11.2580    -4.4650    21.3590 ha         1 CVY       0.158000
     47 H231        -9.5420    -6.5910    24.6710 ha         1 CVY       0.139000
     48 H241       -10.4360    -4.8820    26.2100 ha         1 CVY       0.142000
     49 H031       -16.0850    -1.8760    14.7330 ha         1 CVY       0.126000
     50 H051       -15.0640     1.9350    16.3890 ha         1 CVY       0.130000
     51 H061       -12.7800     1.8100    15.4700 ha         1 CVY       0.125000
     52 H391       -15.8430    -3.8070    13.6550 h4         1 CVY       0.036100
     53 H421       -11.9150    -4.1770    11.9330 h4         1 CVY       0.165000
     54 H431       -13.4410    -7.4110    11.8220 h1         1 CVY       0.058367
     55 H433       -13.8820    -6.5720    10.3220 h1         1 CVY       0.058367
     56 H432       -12.2420    -6.4240    10.9730 h1         1 CVY       0.058367
     57 H071       -17.7530     0.2680    15.4550 hn         1 CVY       0.163000
     58 H161       -13.4050    -0.4920    22.0670 hn         1 CVY       0.155000
     59 H191       -12.2790    -1.6720    23.4140 hn         1 CVY       0.164000
     60 H371       -11.1480     0.0410    13.8850 hn         1 CVY       0.379000
     61 C43        -13.2930    -6.5070    11.2350 c3         1 CVY       0.071900
@<TRIPOS>BOND
     1     1     2 ar  
     2     1     6 ar  
     3     1    20 1   
     4     2     3 ar  
     5     2    22 1   
     6     3     4 ar  
     7     3    43 1   
     8     4     5 ar  
     9     4    35 1   
    10     5     6 ar  
    11     5    44 1   
    12     6    45 1   
    13     7    35 1   
    14     7    36 1   
    15     7    42 2   
    16     8     9 ar  
    17     8    13 ar  
    18     8    36 1   
    19     9    10 ar  
    20     9    46 1   
    21    10    11 ar  
    22    10    21 1   
    23    11    12 ar  
    24    11    47 1   
    25    12    13 ar  
    26    12    48 1   
    27    13    27 1   
    28    14    15 ar  
    29    14    19 ar  
    30    14    38 1   
    31    15    16 ar  
    32    15    23 1   
    33    16    17 ar  
    34    16    49 1   
    35    17    18 ar  
    36    17    34 1   
    37    18    19 ar  
    38    18    50 1   
    39    19    51 1   
    40    20    34 1   
    41    20    41 2   
    42    21    28 1   
    43    21    29 1   
    44    21    30 1   
    45    22    31 1   
    46    22    32 1   
    47    22    33 1   
    48    23    24 1   
    49    23    37 2   
    50    24    25 1   
    51    24    26 2   
    52    25    39 2   
    53    25    52 1   
    54    26    40 1   
    55    26    53 1   
    56    34    57 1   
    57    35    58 1   
    58    36    59 1   
    59    37    38 1   
    60    38    60 1   
    61    39    40 1   
    62    40    61 1   
    63    54    61 1   
    64    55    61 1   
    65    56    61 1   
@<TRIPOS>SUBSTRUCTURE
     1 CVY         1 TEMP              0 ****  ****    0 ROOT
