@<TRIPOS>MOLECULE
CVY
   61    65     1     0     0
SMALL
No Charge or Current Charge


@<TRIPOS>ATOM
      1 C10        -16.1980    -0.3840    18.5340 ca         1 CVY      -0.121600
      2 C11        -16.0060     0.4960    19.6410 ca         1 CVY      -0.123300
      3 C12        -15.1730     0.0750    20.7070 ca         1 CVY      -0.140000
      4 C13        -14.5210    -1.1700    20.6960 ca         1 CVY       0.005000
      5 C14        -14.7090    -2.0230    19.5940 ca         1 CVY      -0.111000
      6 C15        -15.5390    -1.6340    18.5330 ca         1 CVY      -0.056000
      7 C17        -12.9260    -2.6030    22.1150 c          1 CVY       0.672100
      8 C20        -11.4150    -3.3160    24.0780 ca         1 CVY      -0.055000
      9 C21        -11.0190    -4.6000    23.6340 ca         1 CVY      -0.053000
     10 C22        -10.1420    -5.3960    24.4050 ca         1 CVY      -0.191300
     11 C23         -9.6680    -4.9050    25.6410 ca         1 CVY      -0.052000
     12 C24        -10.0580    -3.6330    26.0880 ca         1 CVY      -0.136000
     13 C25        -10.9210    -2.8480    25.3130 ca         1 CVY       0.155000
     14 C01        -12.8750    -0.9260    14.4190 ca         1 CVY      -0.039200
     15 C02        -13.9470    -1.5470    13.8510 ca         1 CVY      -0.212900
     16 C03        -15.2360    -1.3920    14.3960 ca         1 CVY      -0.038000
     17 C04        -15.3880    -0.5880    15.5500 ca         1 CVY      -0.094000
     18 C05        -14.2600     0.0630    16.1150 ca         1 CVY      -0.077000
     19 C06        -12.9820    -0.1090    15.5480 ca         1 CVY      -0.123000
     20 C08        -17.1090    -0.0500    17.3610 c          1 CVY       0.620700
     21 C27         -9.7370    -6.7870    23.9010 c3         1 CVY       0.360300
     22 C31        -16.6450     1.9030    19.7010 c3         1 CVY       0.358300
     23 C35        -13.4070    -2.2790    12.7090 cc         1 CVY       0.464500
     24 C38        -14.1210    -3.1060    11.7680 cc         1 CVY      -0.229900
     25 C39        -15.4880    -3.4180    11.7060 cc         1 CVY       0.261900
     26 C42        -13.5300    -3.7570    10.7220 cd         1 CVY      -0.133000
     27 F26        -11.2820    -1.6250    25.7670 f          1 CVY      -0.175000
     28 F28         -9.4630    -6.7840    22.5760 f          1 CVY      -0.110333
     29 F29         -8.6360    -7.2710    24.5200 f          1 CVY      -0.110333
     30 F30        -10.7270    -7.6870    24.0970 f          1 CVY      -0.110333
     31 F32        -16.5380     2.5670    18.5260 f          1 CVY      -0.108667
     32 F33        -16.0660     2.7030    20.6280 f          1 CVY      -0.108667
     33 F34        -17.9580     1.8460    20.0170 f          1 CVY      -0.108667
     34 N07        -16.6930    -0.4280    16.0920 ns         1 CVY      -0.162000
     35 N16        -13.7020    -1.4930    21.8140 ns         1 CVY      -0.158000
     36 N19        -12.2950    -2.4660    23.3440 ns         1 CVY      -0.166000
     37 N36        -12.0770    -2.0960    12.6100 nd         1 CVY      -0.530100
     38 N37        -11.7650    -1.2530    13.6790 na         1 CVY      -0.054400
     39 N40        -15.8040    -4.2130    10.7030 nd         1 CVY      -0.526800
     40 N41        -14.5790    -4.4260    10.0860 na         1 CVY       0.135800
     41 O09        -18.2390     0.3970    17.5240 o          1 CVY      -0.569100
     42 O18        -12.8100    -3.5820    21.3870 o          1 CVY      -0.592100
     43 H121       -15.0180     0.7260    21.5650 ha         1 CVY       0.128000
     44 H141       -14.2320    -2.9960    19.5390 ha         1 CVY       0.159000
     45 H151       -15.6810    -2.3290    17.7070 ha         1 CVY       0.132000
     46 H211       -11.3850    -4.9990    22.6930 ha         1 CVY       0.158000
     47 H231        -9.0020    -5.5020    26.2610 ha         1 CVY       0.139000
     48 H241        -9.6910    -3.2550    27.0400 ha         1 CVY       0.142000
     49 H031       -16.1070    -1.8710    13.9680 ha         1 CVY       0.126000
     50 H051       -14.3640     0.7120    16.9810 ha         1 CVY       0.130000
     51 H061       -12.1100     0.3840    15.9730 ha         1 CVY       0.125000
     52 H391       -16.2870    -3.0990    12.3540 h4         1 CVY       0.036100
     53 H421       -12.4990    -3.8010    10.3880 h4         1 CVY       0.165000
     54 H431       -14.8130    -6.2920     9.1370 h1         1 CVY       0.058367
     55 H433       -15.1010    -4.8670     8.0930 h1         1 CVY       0.058367
     56 H432       -13.4330    -5.3160     8.5540 h1         1 CVY       0.058367
     57 H071       -17.4250    -0.3970    15.3950 hn         1 CVY       0.163000
     58 H161       -13.6860    -0.7730    22.5230 hn         1 CVY       0.155000
     59 H191       -12.4950    -1.5930    23.8150 hn         1 CVY       0.164000
     60 H371       -10.8110    -0.9400    13.8550 hn         1 CVY       0.379000
     61 C43        -14.4750    -5.2780     8.8930 c3         1 CVY       0.071900
@<TRIPOS>BOND
     1     1     2 ar  
     2     1     6 ar  
     3     1    20 1   
     4     2     3 ar  
     5     2    22 1   
     6     3     4 ar  
     7     3    43 1   
     8     4     5 ar  
     9     4    35 1   
    10     5     6 ar  
    11     5    44 1   
    12     6    45 1   
    13     7    35 1   
    14     7    36 1   
    15     7    42 2   
    16     8     9 ar  
    17     8    13 ar  
    18     8    36 1   
    19     9    10 ar  
    20     9    46 1   
    21    10    11 ar  
    22    10    21 1   
    23    11    12 ar  
    24    11    47 1   
    25    12    13 ar  
    26    12    48 1   
    27    13    27 1   
    28    14    15 ar  
    29    14    19 ar  
    30    14    38 1   
    31    15    16 ar  
    32    15    23 1   
    33    16    17 ar  
    34    16    49 1   
    35    17    18 ar  
    36    17    34 1   
    37    18    19 ar  
    38    18    50 1   
    39    19    51 1   
    40    20    34 1   
    41    20    41 2   
    42    21    28 1   
    43    21    29 1   
    44    21    30 1   
    45    22    31 1   
    46    22    32 1   
    47    22    33 1   
    48    23    24 1   
    49    23    37 2   
    50    24    25 1   
    51    24    26 2   
    52    25    39 2   
    53    25    52 1   
    54    26    40 1   
    55    26    53 1   
    56    34    57 1   
    57    35    58 1   
    58    36    59 1   
    59    37    38 1   
    60    38    60 1   
    61    39    40 1   
    62    40    61 1   
    63    54    61 1   
    64    55    61 1   
    65    56    61 1   
@<TRIPOS>SUBSTRUCTURE
     1 CVY         1 TEMP              0 ****  ****    0 ROOT
