@<TRIPOS>MOLECULE
CVZ
   89    91     1     0     0
SMALL
bcc


@<TRIPOS>ATOM
      1 C01          7.2480    -0.7000    -2.2560 c3         1 CVZ      -0.126100
      2 C02          6.1780     0.3240    -1.8830 c3         1 CVZ       0.170800
      3 C04          5.5110    -0.6840     0.2520 c3         1 CVZ       0.186800
      4 C05          4.2210    -1.2800    -0.2910 c3         1 CVZ      -0.080400
      5 C06          3.7090    -2.4110     0.5920 c3         1 CVZ      -0.071400
      6 C07          2.4080    -3.0120     0.0770 c3         1 CVZ      -0.098400
      7 C08          1.9370    -4.1570     0.9610 c3         1 CVZ       0.102000
      8 C10          0.6560    -5.8060    -0.3750 cc         1 CVZ       0.115400
      9 C11          1.9540    -6.4010    -0.8090 c3         1 CVZ      -0.070900
     10 C12         -0.5170    -6.3030    -0.8210 cd         1 CVZ      -0.345200
     11 C13         -1.7770    -5.7540    -0.4080 c          1 CVZ       0.735700
     12 C17         -3.7000    -3.3670     0.2220 c2         1 CVZ      -0.137200
     13 C18         -4.9360    -2.7240     0.7570 c3         1 CVZ      -0.039200
     14 C19         -4.9120    -1.2080     0.5530 c3         1 CVZ      -0.080400
     15 C20         -6.1240    -0.5430     1.1870 c3         1 CVZ       0.175800
     16 C22         -6.8750     1.5630     2.1040 c3         1 CVZ       0.169800
     17 C23         -6.0430     1.6900     3.3690 c3         1 CVZ      -0.093100
     18 C24         -6.6270     1.2950    -0.2840 c3         1 CVZ       0.208100
     19 C25         -6.3270     2.7450    -0.5650 ca         1 CVZ      -0.026300
     20 C26         -5.0720     3.3100    -0.3550 ca         1 CVZ      -0.136200
     21 C27         -4.8190     4.6620    -0.5120 ca         1 CVZ      -0.085000
     22 C28         -5.8440     5.4940    -0.9370 ca         1 CVZ      -0.130000
     23 C29         -7.1030     4.9630    -1.1710 ca         1 CVZ      -0.099000
     24 C30         -7.3380     3.6090    -0.9700 ca         1 CVZ      -0.135000
     25 C34         -0.4830    -4.1390     0.9260 c          1 CVZ       0.821500
     26 C36          6.9900     1.2310     0.2120 c3         1 CVZ       0.218100
     27 C37          6.9680     2.6840    -0.1860 ca         1 CVZ      -0.029300
     28 C38          5.7850     3.4170    -0.2370 ca         1 CVZ      -0.136200
     29 C39          5.7320     4.7270    -0.6790 ca         1 CVZ      -0.084000
     30 C40          6.9100     5.3590    -1.0510 ca         1 CVZ      -0.130000
     31 C41          8.1080     4.6630    -1.0010 ca         1 CVZ      -0.099000
     32 C42          8.1270     3.3370    -0.5870 ca         1 CVZ      -0.133000
     33 N03          5.9350     0.5060    -0.4610 n3         1 CVZ      -0.752600
     34 N09          0.6780    -4.7490     0.5000 n          1 CVZ      -0.377000
     35 N15         -1.6710    -4.6570     0.4530 n          1 CVZ      -0.441600
     36 N21         -6.1460     0.9030     1.0270 n3         1 CVZ      -0.734600
     37 N31         -3.9370     2.4760     0.0110 no         1 CVZ       0.328200
     38 N43          4.5290     2.8210     0.2010 no         1 CVZ       0.330200
     39 O32         -3.2950     2.7930     0.9820 o          1 CVZ      -0.201500
     40 O33         -3.6680     1.5540    -0.7200 o          1 CVZ      -0.201500
     41 O35         -0.4730    -3.1910     1.6840 o          1 CVZ      -0.616500
     42 O44          3.6010     2.8460    -0.5710 o          1 CVZ      -0.203000
     43 O45          4.4720     2.4000     1.3300 o          1 CVZ      -0.203000
     44 H1           8.2160    -0.4610    -1.8150 hc         1 CVZ       0.035367
     45 H2           6.9750    -1.7080    -1.9410 hc         1 CVZ       0.035367
     46 H3           7.3790    -0.7200    -3.3390 hc         1 CVZ       0.035367
     47 H4           6.4480     1.2960    -2.3050 h1         1 CVZ       0.055200
     48 H5           5.2370     0.0510    -2.3630 h1         1 CVZ       0.055200
     49 H6           5.3440    -0.3940     1.2930 h1         1 CVZ       0.032200
     50 H7           6.2880    -1.4650     0.2780 h1         1 CVZ       0.032200
     51 H8           3.4680    -0.4890    -0.3620 hc         1 CVZ       0.053700
     52 H9           4.3690    -1.6650    -1.3050 hc         1 CVZ       0.053700
     53 H10          4.4720    -3.1950     0.6580 hc         1 CVZ       0.039200
     54 H11          3.5600    -2.0410     1.6120 hc         1 CVZ       0.039200
     55 H12          1.6360    -2.2390     0.0350 hc         1 CVZ       0.056700
     56 H13          2.5490    -3.3710    -0.9480 hc         1 CVZ       0.056700
     57 H14          2.6880    -4.9420     1.0060 h1         1 CVZ       0.065200
     58 H15          1.7940    -3.8150     1.9840 h1         1 CVZ       0.065200
     59 H16          2.4920    -6.8390     0.0330 hc         1 CVZ       0.060700
     60 H17          1.7730    -7.1860    -1.5370 hc         1 CVZ       0.060700
     61 H18          2.6080    -5.6590    -1.2680 hc         1 CVZ       0.060700
     62 H19         -0.5290    -7.1380    -1.5040 ha         1 CVZ       0.168000
     63 H20         -3.0140    -4.1940     2.0380 h4         1 CVZ       0.143000
     64 H21         -3.4920    -3.2330    -0.8360 ha         1 CVZ       0.134000
     65 H22         -5.8120    -3.1400     0.2490 hc         1 CVZ       0.044700
     66 H23         -5.0480    -2.9600     1.8190 hc         1 CVZ       0.044700
     67 H24         -4.0060    -0.7890     0.9970 hc         1 CVZ       0.062700
     68 H25         -4.8630    -0.9950    -0.5180 hc         1 CVZ       0.062700
     69 H26         -7.0500    -1.0030     0.8030 h1         1 CVZ       0.030200
     70 H27         -6.1060    -0.7670     2.2560 h1         1 CVZ       0.030200
     71 H28         -7.8250     1.0490     2.3200 h1         1 CVZ       0.027700
     72 H29         -7.1480     2.5670     1.7750 h1         1 CVZ       0.027700
     73 H30         -5.7530     0.7200     3.7760 hc         1 CVZ       0.042367
     74 H31         -5.1320     2.2530     3.1650 hc         1 CVZ       0.042367
     75 H32         -6.6040     2.2150     4.1420 hc         1 CVZ       0.042367
     76 H33         -7.7110     1.1370    -0.4000 h1         1 CVZ       0.053200
     77 H34         -6.1490     0.6710    -1.0420 h1         1 CVZ       0.053200
     78 H35         -3.8310     5.0630    -0.3290 ha         1 CVZ       0.160000
     79 H36         -5.6550     6.5490    -1.0790 ha         1 CVZ       0.144000
     80 H37         -7.9120     5.6050    -1.4920 ha         1 CVZ       0.139000
     81 H38         -8.3350     3.2120    -1.1160 ha         1 CVZ       0.140000
     82 H39          7.9970     0.8340     0.0190 h1         1 CVZ       0.053200
     83 H40          6.8410     1.1480     1.2910 h1         1 CVZ       0.053200
     84 H41          4.7920     5.2600    -0.7180 ha         1 CVZ       0.160000
     85 H42          6.8840     6.3880    -1.3830 ha         1 CVZ       0.144000
     86 H43          9.0290     5.1440    -1.3000 ha         1 CVZ       0.140000
     87 H44          9.0600     2.7880    -0.5840 ha         1 CVZ       0.140000
     88 O14         -2.8650    -6.1760    -0.7540 o          1 CVZ      -0.599500
     89 C16         -2.8520    -4.0480     0.9760 c2         1 CVZ      -0.037400
@<TRIPOS>BOND
     1     1     2 1   
     2     1    44 1   
     3     1    45 1   
     4     1    46 1   
     5     2    33 1   
     6     2    47 1   
     7     2    48 1   
     8     3     4 1   
     9     3    33 1   
    10     3    49 1   
    11     3    50 1   
    12     4     5 1   
    13     4    51 1   
    14     4    52 1   
    15     5     6 1   
    16     5    53 1   
    17     5    54 1   
    18     6     7 1   
    19     6    55 1   
    20     6    56 1   
    21     7    34 1   
    22     7    57 1   
    23     7    58 1   
    24     8     9 1   
    25     8    10 2   
    26     8    34 1   
    27     9    59 1   
    28     9    60 1   
    29     9    61 1   
    30    10    11 1   
    31    10    62 1   
    32    11    35 1   
    33    11    88 2   
    34    12    13 1   
    35    12    64 1   
    36    12    89 2   
    37    13    14 1   
    38    13    65 1   
    39    13    66 1   
    40    14    15 1   
    41    14    67 1   
    42    14    68 1   
    43    15    36 1   
    44    15    69 1   
    45    15    70 1   
    46    16    17 1   
    47    16    36 1   
    48    16    71 1   
    49    16    72 1   
    50    17    73 1   
    51    17    74 1   
    52    17    75 1   
    53    18    19 1   
    54    18    36 1   
    55    18    76 1   
    56    18    77 1   
    57    19    20 ar  
    58    19    24 ar  
    59    20    21 ar  
    60    20    37 1   
    61    21    22 ar  
    62    21    78 1   
    63    22    23 ar  
    64    22    79 1   
    65    23    24 ar  
    66    23    80 1   
    67    24    81 1   
    68    25    34 1   
    69    25    35 1   
    70    25    41 2   
    71    26    27 1   
    72    26    33 1   
    73    26    82 1   
    74    26    83 1   
    75    27    28 ar  
    76    27    32 ar  
    77    28    29 ar  
    78    28    38 1   
    79    29    30 ar  
    80    29    84 1   
    81    30    31 ar  
    82    30    85 1   
    83    31    32 ar  
    84    31    86 1   
    85    32    87 1   
    86    35    89 1   
    87    37    39 1   
    88    37    40 1   
    89    38    42 1   
    90    38    43 1   
    91    63    89 1   
@<TRIPOS>SUBSTRUCTURE
     1 CVZ         1 TEMP              0 ****  ****    0 ROOT
