@<TRIPOS>MOLECULE
CVZ
   89    91     1     0     0
SMALL
No Charge or Current Charge


@<TRIPOS>ATOM
      1 C01          7.5410    -0.4690    -2.5350 c3         1 CVZ      -0.126100
      2 C02          6.5550     0.5440    -1.9140 c3         1 CVZ       0.170800
      3 C04          5.9860    -0.7250     0.1840 c3         1 CVZ       0.186800
      4 C05          4.5730    -1.1520    -0.2760 c3         1 CVZ      -0.080400
      5 C06          4.0290    -2.3660     0.5100 c3         1 CVZ      -0.071400
      6 C07          2.6210    -2.8000     0.0490 c3         1 CVZ      -0.098400
      7 C08          2.0780    -4.0120     0.8380 c3         1 CVZ       0.102000
      8 C10          0.6280    -5.4250    -0.6600 cc         1 CVZ       0.115400
      9 C11          1.8530    -6.0290    -1.3090 c3         1 CVZ      -0.070900
     10 C12         -0.6260    -5.8170    -1.0380 cd         1 CVZ      -0.395200
     11 C13         -1.8590    -5.3000    -0.4500 c          1 CVZ       0.593200
     12 C17         -3.9990    -3.4200     0.6060 c2         1 CVZ      -0.187200
     13 C18         -5.1710    -2.7850     1.3250 c3         1 CVZ      -0.039200
     14 C19         -5.4750    -1.3660     0.8020 c3         1 CVZ      -0.080400
     15 C20         -6.6680    -0.7000     1.5260 c3         1 CVZ       0.175800
     16 C22         -7.8640     1.4010     2.1090 c3         1 CVZ       0.169800
     17 C23         -7.4560     1.4540     3.5950 c3         1 CVZ      -0.093100
     18 C24         -7.1870     0.9860    -0.2310 c3         1 CVZ       0.208100
     19 C25         -7.1840     2.4690    -0.6200 ca         1 CVZ      -0.026300
     20 C26         -6.0340     3.2850    -0.4530 ca         1 CVZ      -0.136200
     21 C27         -6.0980     4.6600    -0.7730 ca         1 CVZ      -0.067000
     22 C28         -7.2860     5.2190    -1.2690 ca         1 CVZ      -0.112000
     23 C29         -8.4210     4.4130    -1.4450 ca         1 CVZ      -0.081000
     24 C30         -8.3700     3.0480    -1.1190 ca         1 CVZ      -0.117000
     25 C34         -0.4030    -3.9120     0.9770 c          1 CVZ       0.612000
     26 C36          7.7300     1.0200     0.2410 c3         1 CVZ       0.218100
     27 C37          8.1410     2.4350    -0.1810 ca         1 CVZ      -0.029300
     28 C38          7.2930     3.5560     0.0230 ca         1 CVZ      -0.136200
     29 C39          7.6930     4.8310    -0.4350 ca         1 CVZ      -0.066000
     30 C40          8.9310     4.9980    -1.0770 ca         1 CVZ      -0.112000
     31 C41          9.7750     3.8950    -1.2720 ca         1 CVZ      -0.081000
     32 C42          9.3800     2.6220    -0.8290 ca         1 CVZ      -0.115000
     33 N03          6.4880     0.5370    -0.4230 n3         1 CVZ      -0.752600
     34 N09          0.7430    -4.4700     0.3550 n          1 CVZ      -0.310000
     35 N15         -1.6830    -4.3260     0.5500 n          1 CVZ      -0.307600
     36 N21         -6.8780     0.7410     1.2090 n3         1 CVZ      -0.734600
     37 N31         -4.7550     2.7210     0.0660 no         1 CVZ       0.708200
     38 N43          5.9730     3.4130     0.7040 no         1 CVZ       0.710200
     39 O32         -4.1460     3.3860     0.9160 o          1 CVZ      -0.391500
     40 O33         -4.2370     1.7970    -0.5770 o          1 CVZ      -0.391500
     41 O35         -0.2860    -3.0690     1.8600 o          1 CVZ      -0.541000
     42 O44          5.0120     4.0210     0.2110 o          1 CVZ      -0.393000
     43 O45          5.9700     2.9510     1.8540 o          1 CVZ      -0.393000
     44 H1           8.5670    -0.2810    -2.2000 hc         1 CVZ       0.035367
     45 H2           7.2690    -1.4980    -2.2750 hc         1 CVZ       0.035367
     46 H3           7.5230    -0.3830    -3.6280 hc         1 CVZ       0.035367
     47 H4           6.8340     1.5460    -2.2690 h1         1 CVZ       0.055200
     48 H5           5.5590     0.3550    -2.3360 h1         1 CVZ       0.055200
     49 H6           5.9490    -0.6010     1.2750 h1         1 CVZ       0.032200
     50 H7           6.6870    -1.5470    -0.0140 h1         1 CVZ       0.032200
     51 H8           3.8880    -0.3050    -0.1540 hc         1 CVZ       0.053700
     52 H9           4.5930    -1.4050    -1.3420 hc         1 CVZ       0.053700
     53 H10          4.7230    -3.2090     0.3940 hc         1 CVZ       0.039200
     54 H11          3.9990    -2.1190     1.5790 hc         1 CVZ       0.039200
     55 H12          1.9260    -1.9600     0.1670 hc         1 CVZ       0.056700
     56 H13          2.6490    -3.0400    -1.0200 hc         1 CVZ       0.056700
     57 H14          2.7980    -4.8360     0.7730 h1         1 CVZ       0.065200
     58 H15          2.0250    -3.7530     1.9030 h1         1 CVZ       0.065200
     59 H16          2.4230    -6.6310    -0.5910 hc         1 CVZ       0.060700
     60 H17          1.5780    -6.6900    -2.1390 hc         1 CVZ       0.060700
     61 H18          2.5160    -5.2600    -1.7190 hc         1 CVZ       0.060700
     62 H19         -0.7830    -6.5630    -1.8070 ha         1 CVZ       0.218000
     63 H20         -2.6550    -3.5050     2.2360 h4         1 CVZ       0.193000
     64 H21         -4.1800    -3.6060    -0.4530 ha         1 CVZ       0.184000
     65 H22         -6.0630    -3.4140     1.2050 hc         1 CVZ       0.044700
     66 H23         -4.9720    -2.7320     2.4030 hc         1 CVZ       0.044700
     67 H24         -4.5840    -0.7400     0.9310 hc         1 CVZ       0.062700
     68 H25         -5.6760    -1.4290    -0.2730 hc         1 CVZ       0.062700
     69 H26         -7.5810    -1.2690     1.3010 h1         1 CVZ       0.030200
     70 H27         -6.4790    -0.8160     2.6000 h1         1 CVZ       0.030200
     71 H28         -8.8400     0.9020     2.0290 h1         1 CVZ       0.027700
     72 H29         -8.0150     2.4420     1.7940 h1         1 CVZ       0.027700
     73 H30         -7.4820     0.4610     4.0570 hc         1 CVZ       0.042367
     74 H31         -6.4460     1.8680     3.7020 hc         1 CVZ       0.042367
     75 H32         -8.1490     2.0960     4.1500 hc         1 CVZ       0.042367
     76 H33         -8.1660     0.5510    -0.4760 h1         1 CVZ       0.053200
     77 H34         -6.4600     0.4860    -0.8820 h1         1 CVZ       0.053200
     78 H35         -5.2220     5.2950    -0.6440 ha         1 CVZ       0.142000
     79 H36         -7.3270     6.2780    -1.5180 ha         1 CVZ       0.126000
     80 H37         -9.3420     4.8470    -1.8280 ha         1 CVZ       0.121000
     81 H38         -9.2620     2.4380    -1.2470 ha         1 CVZ       0.122000
     82 H39          8.5580     0.3270     0.0380 h1         1 CVZ       0.053200
     83 H40          7.6000     1.0180     1.3310 h1         1 CVZ       0.053200
     84 H41          7.0480     5.6960    -0.2870 ha         1 CVZ       0.142000
     85 H42          9.2350     5.9840    -1.4240 ha         1 CVZ       0.126000
     86 H43         10.7330     4.0240    -1.7720 ha         1 CVZ       0.122000
     87 H44         10.0390     1.7730    -1.0000 ha         1 CVZ       0.122000
     88 O14         -2.9460    -5.7270    -0.8110 o          1 CVZ      -0.524000
     89 C16         -2.8200    -3.7210     1.1780 c2         1 CVZ      -0.087400
@<TRIPOS>BOND
     1     1     2 1   
     2     1    44 1   
     3     1    45 1   
     4     1    46 1   
     5     2    33 1   
     6     2    47 1   
     7     2    48 1   
     8     3     4 1   
     9     3    33 1   
    10     3    49 1   
    11     3    50 1   
    12     4     5 1   
    13     4    51 1   
    14     4    52 1   
    15     5     6 1   
    16     5    53 1   
    17     5    54 1   
    18     6     7 1   
    19     6    55 1   
    20     6    56 1   
    21     7    34 1   
    22     7    57 1   
    23     7    58 1   
    24     8     9 1   
    25     8    10 2   
    26     8    34 1   
    27     9    59 1   
    28     9    60 1   
    29     9    61 1   
    30    10    11 1   
    31    10    62 1   
    32    11    35 1   
    33    11    88 2   
    34    12    13 1   
    35    12    64 1   
    36    12    89 2   
    37    13    14 1   
    38    13    65 1   
    39    13    66 1   
    40    14    15 1   
    41    14    67 1   
    42    14    68 1   
    43    15    36 1   
    44    15    69 1   
    45    15    70 1   
    46    16    17 1   
    47    16    36 1   
    48    16    71 1   
    49    16    72 1   
    50    17    73 1   
    51    17    74 1   
    52    17    75 1   
    53    18    19 1   
    54    18    36 1   
    55    18    76 1   
    56    18    77 1   
    57    19    20 ar  
    58    19    24 ar  
    59    20    21 ar  
    60    20    37 1   
    61    21    22 ar  
    62    21    78 1   
    63    22    23 ar  
    64    22    79 1   
    65    23    24 ar  
    66    23    80 1   
    67    24    81 1   
    68    25    34 1   
    69    25    35 1   
    70    25    41 2   
    71    26    27 1   
    72    26    33 1   
    73    26    82 1   
    74    26    83 1   
    75    27    28 ar  
    76    27    32 ar  
    77    28    29 ar  
    78    28    38 1   
    79    29    30 ar  
    80    29    84 1   
    81    30    31 ar  
    82    30    85 1   
    83    31    32 ar  
    84    31    86 1   
    85    32    87 1   
    86    35    89 1   
    87    37    39 1   
    88    37    40 1   
    89    38    42 1   
    90    38    43 1   
    91    63    89 1   
@<TRIPOS>SUBSTRUCTURE
     1 CVZ         1 TEMP              0 ****  ****    0 ROOT
