@<TRIPOS>MOLECULE
CW0
   60    63     1     0     0
SMALL
abcg2


@<TRIPOS>ATOM
      1 N1           1.6620    52.8890    84.1810 n7         1 CW0      -0.844400
      2 C4          -0.9920    51.6240    84.5030 c6         1 CW0      -0.068700
      3 C5          -0.5020    52.1390    83.1470 c6         1 CW0      -0.108400
      4 C6           0.5300    53.2550    83.3220 c6         1 CW0       0.147300
      5 C7          -1.9410    50.4490    84.3730 c3         1 CW0       0.186600
      6 C13         -5.8950    51.8700    80.8410 c6         1 CW0      -0.106400
      7 C15         -7.4580    50.3990    82.1650 c6         1 CW0      -0.106400
      8 C17         -8.0810    51.0730    79.7720 c3         1 CW0       0.158800
      9 C20         -6.6140    49.6420    78.3910 cx         1 CW0       0.133500
     10 C21         -6.7350    48.8540    77.1150 cx         1 CW0      -0.080400
     11 C22         -6.5570    50.3610    77.0730 cx         1 CW0      -0.161400
     12 C24         -4.3080    48.2140    76.8250 ca         1 CW0      -0.104500
     13 C26         -3.6990    46.0960    75.8380 ca         1 CW0      -0.108000
     14 C28         -6.0200    46.6970    76.0970 ca         1 CW0      -0.104500
     15 C2           1.2120    52.3780    85.4800 c6         1 CW0       0.147300
     16 C3           0.2040    51.2300    85.3780 c6         1 CW0      -0.108400
     17 O8          -3.1050    50.8860    83.6420 os         1 CW0      -0.468100
     18 C9          -4.0330    49.9450    83.3610 c          1 CW0       0.639100
     19 N10         -5.0510    50.4390    82.6280 n          1 CW0      -0.416800
     20 O11         -3.9460    48.7820    83.7420 o          1 CW0      -0.550000
     21 C12         -5.0770    51.8180    82.1230 c6         1 CW0       0.121500
     22 C14         -7.3440    51.4490    81.0580 c6         1 CW0       0.200000
     23 C16         -6.1890    49.5690    82.3160 c6         1 CW0       0.121500
     24 F18         -8.0350    52.6210    81.5250 f          1 CW0      -0.284000
     25 C23         -5.6680    47.9200    76.6760 ca         1 CW0      -0.047300
     26 C25         -3.3350    47.3120    76.4110 ca         1 CW0      -0.107000
     27 C27         -5.0480    45.7930    75.6820 ca         1 CW0      -0.107000
     28 H1           2.1990    52.1630    83.7160 hn         1 CW0       0.400000
     29 H3          -1.5290    52.4370    85.0080 hc         1 CW0       0.061700
     30 H4          -0.0460    51.3090    82.5930 hc         1 CW0       0.047200
     31 H5          -1.3430    52.5020    82.5500 hc         1 CW0       0.047200
     32 H6           0.9200    53.5670    82.3510 h1         1 CW0       0.053450
     33 H7           0.0430    54.1280    83.7700 h1         1 CW0       0.053450
     34 H8          -2.2530    50.0880    85.3540 h1         1 CW0       0.051200
     35 H9          -1.4690    49.6250    83.8340 h1         1 CW0       0.051200
     36 H10         -5.4330    51.2170    80.1010 hc         1 CW0       0.065950
     37 H11         -5.8840    52.8790    80.4270 hc         1 CW0       0.065950
     38 H12         -7.6500    50.9250    83.1020 hc         1 CW0       0.065950
     39 H13         -8.3010    49.7360    81.9750 hc         1 CW0       0.065950
     40 H14         -7.9020    51.8580    79.0250 h1         1 CW0       0.048700
     41 H15         -9.1450    51.0800    80.0150 h1         1 CW0       0.048700
     42 H16         -5.6670    49.5230    78.9030 h1         1 CW0       0.098700
     43 H17         -7.7370    48.5080    76.8900 hc         1 CW0       0.078700
     44 H18         -5.6050    50.7490    76.7350 hc         1 CW0       0.077200
     45 H19         -7.4220    50.9440    76.7840 hc         1 CW0       0.077200
     46 H21         -2.9390    45.3950    75.5150 ha         1 CW0       0.114000
     47 H22         -7.0690    46.4540    75.9720 ha         1 CW0       0.109000
     48 H23          0.7560    53.2110    86.0260 h1         1 CW0       0.053450
     49 H24          2.0880    52.0610    86.0500 h1         1 CW0       0.053450
     50 H25         -0.1360    50.9430    86.3780 hc         1 CW0       0.047200
     51 H26          0.7000    50.3560    84.9410 hc         1 CW0       0.047200
     52 H27         -4.0590    52.1410    81.9270 h1         1 CW0       0.060950
     53 H28         -5.5000    52.4900    82.8760 h1         1 CW0       0.060950
     54 H29         -6.3060    48.8560    83.1280 h1         1 CW0       0.060950
     55 H30         -5.9950    49.0010    81.4030 h1         1 CW0       0.060950
     56 H33         -2.2880    47.5590    76.5360 ha         1 CW0       0.113000
     57 H34         -5.3450    44.8520    75.2360 ha         1 CW0       0.113000
     58 N19         -7.7530    49.7420    79.2670 n7         1 CW0      -0.862400
     59 H20         -4.0010    49.1540    77.2670 ha         1 CW0       0.109000
     60 H31         -8.5680    49.3410    78.8240 hn         1 CW0       0.427000
@<TRIPOS>BOND
     1     1     4 1   
     2     1    15 1   
     3     1    28 1   
     4     2     3 1   
     5     2     5 1   
     6     2    16 1   
     7     2    29 1   
     8     3     4 1   
     9     3    30 1   
    10     3    31 1   
    11     4    32 1   
    12     4    33 1   
    13     5    17 1   
    14     5    34 1   
    15     5    35 1   
    16     6    21 1   
    17     6    22 1   
    18     6    36 1   
    19     6    37 1   
    20     7    22 1   
    21     7    23 1   
    22     7    38 1   
    23     7    39 1   
    24     8    22 1   
    25     8    40 1   
    26     8    41 1   
    27     8    58 1   
    28     9    10 1   
    29     9    11 1   
    30     9    42 1   
    31     9    58 1   
    32    10    11 1   
    33    10    25 1   
    34    10    43 1   
    35    11    44 1   
    36    11    45 1   
    37    12    25 ar  
    38    12    26 ar  
    39    12    59 1   
    40    13    26 ar  
    41    13    27 ar  
    42    13    46 1   
    43    14    25 ar  
    44    14    27 ar  
    45    14    47 1   
    46    15    16 1   
    47    15    48 1   
    48    15    49 1   
    49    16    50 1   
    50    16    51 1   
    51    17    18 1   
    52    18    19 1   
    53    18    20 2   
    54    19    21 1   
    55    19    23 1   
    56    21    52 1   
    57    21    53 1   
    58    22    24 1   
    59    23    54 1   
    60    23    55 1   
    61    26    56 1   
    62    27    57 1   
    63    58    60 1   
@<TRIPOS>SUBSTRUCTURE
     1 CW0         1 TEMP              0 ****  ****    0 ROOT
