@<TRIPOS>MOLECULE
CW0
   60    63     1     0     0
SMALL
No Charge or Current Charge


@<TRIPOS>ATOM
      1 N1           1.7000    53.1980    84.5310 n7         1 CW0      -0.844400
      2 C4          -0.8840    51.7670    84.6650 c6         1 CW0      -0.068700
      3 C5          -0.2710    52.2530    83.3200 c6         1 CW0      -0.108400
      4 C6           0.6420    53.4850    83.5320 c6         1 CW0       0.147300
      5 C7          -1.7660    50.4970    84.4940 c3         1 CW0       0.186600
      6 C13         -5.7740    51.7930    80.7250 c6         1 CW0      -0.106400
      7 C15         -7.2410    50.0870    82.0090 c6         1 CW0      -0.106400
      8 C17         -8.1400    51.1700    79.7890 c3         1 CW0       0.158800
      9 C20         -6.8400    49.6010    78.3170 cx         1 CW0       0.133500
     10 C21         -6.9620    48.8910    76.9870 cx         1 CW0      -0.080400
     11 C22         -6.6100    50.3610    77.0370 cx         1 CW0      -0.161400
     12 C24         -4.5990    47.9320    76.8770 ca         1 CW0      -0.104500
     13 C26         -4.1510    45.8490    75.6970 ca         1 CW0      -0.108000
     14 C28         -6.4140    46.7410    75.7840 ca         1 CW0      -0.104500
     15 C2           1.1470    52.7880    85.8440 c6         1 CW0       0.147300
     16 C3           0.2510    51.5340    85.7000 c6         1 CW0      -0.108400
     17 O8          -2.8660    50.8050    83.6210 os         1 CW0      -0.468100
     18 C9          -3.7570    49.8080    83.3350 c          1 CW0       0.639100
     19 N10         -4.7700    50.2420    82.4630 n          1 CW0      -0.416800
     20 O11         -3.6870    48.6720    83.7820 o          1 CW0      -0.550000
     21 C12         -4.8160    51.6360    81.9280 c6         1 CW0       0.121500
     22 C14         -7.2190    51.3270    81.0610 c6         1 CW0       0.200000
     23 C16         -5.8870    49.3410    82.0630 c6         1 CW0       0.121500
     24 F18         -7.7920    52.3870    81.7980 f          1 CW0      -0.284000
     25 C23         -5.9690    47.8420    76.5450 ca         1 CW0      -0.047300
     26 C25         -3.6960    46.9400    76.4550 ca         1 CW0      -0.107000
     27 C27         -5.5110    45.7500    75.3620 ca         1 CW0      -0.107000
     28 H1           2.2770    52.4280    84.1720 hn         1 CW0       0.400000
     29 H3          -1.5490    52.5530    85.0530 hc         1 CW0       0.061700
     30 H4           0.3080    51.4420    82.8570 hc         1 CW0       0.047200
     31 H5          -1.0680    52.5120    82.6100 hc         1 CW0       0.047200
     32 H6           1.1020    53.7710    82.5740 h1         1 CW0       0.053450
     33 H7           0.0340    54.3370    83.8730 h1         1 CW0       0.053450
     34 H8          -2.1350    50.1830    85.4800 h1         1 CW0       0.051200
     35 H9          -1.1530    49.6860    84.0800 h1         1 CW0       0.051200
     36 H10         -5.3640    51.2240    79.8850 hc         1 CW0       0.065950
     37 H11         -5.7850    52.8400    80.3950 hc         1 CW0       0.065950
     38 H12         -7.4900    50.4050    83.0300 hc         1 CW0       0.065950
     39 H13         -8.0360    49.3880    81.7200 hc         1 CW0       0.065950
     40 H14         -7.9420    52.0150    79.1150 h1         1 CW0       0.048700
     41 H15         -9.1740    51.2950    80.1400 h1         1 CW0       0.048700
     42 H16         -5.9670    49.3520    78.9230 h1         1 CW0       0.098700
     43 H17         -7.9730    48.6590    76.6590 hc         1 CW0       0.078700
     44 H18         -5.5900    50.6550    76.8040 hc         1 CW0       0.077200
     45 H19         -7.3670    51.0700    76.7140 hc         1 CW0       0.077200
     46 H21         -3.4510    45.0820    75.3710 ha         1 CW0       0.114000
     47 H22         -7.4640    46.6510    75.5160 ha         1 CW0       0.109000
     48 H23          0.5570    53.6140    86.2710 h1         1 CW0       0.053450
     49 H24          1.9700    52.5750    86.5430 h1         1 CW0       0.053450
     50 H25         -0.1780    51.2780    86.6790 hc         1 CW0       0.047200
     51 H26          0.8670    50.6760    85.3960 hc         1 CW0       0.047200
     52 H27         -3.8090    51.9440    81.6140 h1         1 CW0       0.060950
     53 H28         -5.1290    52.3140    82.7360 h1         1 CW0       0.060950
     54 H29         -5.9750    48.5090    82.7760 h1         1 CW0       0.060950
     55 H30         -5.6610    48.9010    81.0820 h1         1 CW0       0.060950
     56 H33         -2.6430    47.0180    76.7160 ha         1 CW0       0.113000
     57 H34         -5.8660    44.9060    74.7750 ha         1 CW0       0.113000
     58 N19         -8.0660    49.8790    79.0380 n7         1 CW0      -0.862400
     59 H20         -4.2240    48.7670    77.4620 ha         1 CW0       0.109000
     60 H31         -8.8400    49.8730    78.3620 hn         1 CW0       0.427000
@<TRIPOS>BOND
     1     1     4 1   
     2     1    15 1   
     3     1    28 1   
     4     2     3 1   
     5     2     5 1   
     6     2    16 1   
     7     2    29 1   
     8     3     4 1   
     9     3    30 1   
    10     3    31 1   
    11     4    32 1   
    12     4    33 1   
    13     5    17 1   
    14     5    34 1   
    15     5    35 1   
    16     6    21 1   
    17     6    22 1   
    18     6    36 1   
    19     6    37 1   
    20     7    22 1   
    21     7    23 1   
    22     7    38 1   
    23     7    39 1   
    24     8    22 1   
    25     8    40 1   
    26     8    41 1   
    27     8    58 1   
    28     9    10 1   
    29     9    11 1   
    30     9    42 1   
    31     9    58 1   
    32    10    11 1   
    33    10    25 1   
    34    10    43 1   
    35    11    44 1   
    36    11    45 1   
    37    12    25 ar  
    38    12    26 ar  
    39    12    59 1   
    40    13    26 ar  
    41    13    27 ar  
    42    13    46 1   
    43    14    25 ar  
    44    14    27 ar  
    45    14    47 1   
    46    15    16 1   
    47    15    48 1   
    48    15    49 1   
    49    16    50 1   
    50    16    51 1   
    51    17    18 1   
    52    18    19 1   
    53    18    20 2   
    54    19    21 1   
    55    19    23 1   
    56    21    52 1   
    57    21    53 1   
    58    22    24 1   
    59    23    54 1   
    60    23    55 1   
    61    26    56 1   
    62    27    57 1   
    63    58    60 1   
@<TRIPOS>SUBSTRUCTURE
     1 CW0         1 TEMP              0 ****  ****    0 ROOT
