@<TRIPOS>MOLECULE
CW2
   40    39     1     0     0
SMALL
No Charge or Current Charge


@<TRIPOS>ATOM
      1 C05          8.1700     0.2380    -0.5260 c3         1 CW2       0.209300
      2 C07          6.9850    -0.5190     0.1230 c          1 CW2       0.598100
      3 C10          4.4780    -0.6230     0.3100 c3         1 CW2       0.103000
      4 C11          3.2450     0.1220    -0.2360 c3         1 CW2      -0.094400
      5 C12          1.9130    -0.4640     0.2790 c3         1 CW2      -0.072400
      6 C13          0.6740     0.2810    -0.2670 c3         1 CW2      -0.074400
      7 C14         -0.6580    -0.3050     0.2480 c3         1 CW2      -0.074400
      8 C15         -1.8970     0.4390    -0.2980 c3         1 CW2      -0.072400
      9 C16         -3.2290    -0.1480     0.2170 c3         1 CW2      -0.094400
     10 C17         -4.4620     0.5970    -0.3300 c3         1 CW2       0.103000
     11 C19         -6.9690     0.4920    -0.1450 c          1 CW2       0.598100
     12 C21         -8.1540    -0.2670     0.5040 c3         1 CW2       0.209300
     13 N09          5.7240    -0.0460    -0.1960 ns         1 CW2      -0.500900
     14 N18         -5.7090     0.0190     0.1750 ns         1 CW2      -0.500900
     15 O08          7.1330    -1.4810     0.8700 o          1 CW2      -0.553600
     16 O20         -7.1170     1.4540    -0.8910 o          1 CW2      -0.553600
     17 Cl6          8.9500    -0.7300    -1.8590 cl         1 CW2      -0.198250
     18 Cl2         -8.8820     0.6650     1.8910 cl         1 CW2      -0.198250
     19 Cl3         -9.4700    -0.6650    -0.6940 cl         1 CW2      -0.198250
     20 H1           7.8110     1.1680    -0.9760 h2         1 CW2       0.092700
     21 H3           4.4820    -0.5720     1.4070 h1         1 CW2       0.056950
     22 H4           4.4300    -1.6800     0.0140 h1         1 CW2       0.056950
     23 H5           3.3090     1.1800     0.0490 hc         1 CW2       0.044700
     24 H6           3.2580     0.0820    -1.3330 hc         1 CW2       0.044700
     25 H7           1.8510    -1.5220    -0.0050 hc         1 CW2       0.044200
     26 H8           1.9020    -0.4250     1.3760 hc         1 CW2       0.044200
     27 H9           0.7360     1.3390     0.0170 hc         1 CW2       0.039950
     28 H10          0.6850     0.2420    -1.3630 hc         1 CW2       0.039950
     29 H11         -0.7200    -1.3640    -0.0360 hc         1 CW2       0.039950
     30 H12         -0.6690    -0.2670     1.3450 hc         1 CW2       0.039950
     31 H13         -1.8350     1.4970    -0.0140 hc         1 CW2       0.044200
     32 H14         -1.8860     0.4010    -1.3950 hc         1 CW2       0.044200
     33 H15         -3.2930    -1.2050    -0.0690 hc         1 CW2       0.044700
     34 H16         -3.2420    -0.1070     1.3130 hc         1 CW2       0.044700
     35 H17         -4.4150     1.6540    -0.0340 h1         1 CW2       0.056950
     36 H18         -4.4660     0.5470    -1.4270 h1         1 CW2       0.056950
     37 H19         -7.8020    -1.2200     0.9110 h2         1 CW2       0.092700
     38 H20          5.6690     0.7480    -0.8240 hn         1 CW2       0.317500
     39 H21         -5.6540    -0.7750     0.8040 hn         1 CW2       0.317500
     40 Cl4          9.4490     0.7050     0.6890 cl         1 CW2      -0.198250
@<TRIPOS>BOND
     1     1     2 1   
     2     1    17 1   
     3     1    20 1   
     4     1    40 1   
     5     2    13 1   
     6     2    15 2   
     7     3     4 1   
     8     3    13 1   
     9     3    21 1   
    10     3    22 1   
    11     4     5 1   
    12     4    23 1   
    13     4    24 1   
    14     5     6 1   
    15     5    25 1   
    16     5    26 1   
    17     6     7 1   
    18     6    27 1   
    19     6    28 1   
    20     7     8 1   
    21     7    29 1   
    22     7    30 1   
    23     8     9 1   
    24     8    31 1   
    25     8    32 1   
    26     9    10 1   
    27     9    33 1   
    28     9    34 1   
    29    10    14 1   
    30    10    35 1   
    31    10    36 1   
    32    11    12 1   
    33    11    14 1   
    34    11    16 2   
    35    12    18 1   
    36    12    19 1   
    37    12    37 1   
    38    13    38 1   
    39    14    39 1   
@<TRIPOS>SUBSTRUCTURE
     1 CW2         1 TEMP              0 ****  ****    0 ROOT
