@<TRIPOS>MOLECULE
CW2
   40    39     1     0     0
SMALL
abcg2


@<TRIPOS>ATOM
      1 C05          7.9820     0.2170    -0.5730 c3         1 CW2       0.209300
      2 C07          6.8260    -0.5610     0.0560 c          1 CW2       0.598100
      3 C10          4.4020    -0.5940     0.3430 c3         1 CW2       0.103000
      4 C11          3.1960     0.1350    -0.2270 c3         1 CW2      -0.094400
      5 C12          1.8860    -0.4210     0.3140 c3         1 CW2      -0.072400
      6 C13          0.6660     0.2900    -0.2590 c3         1 CW2      -0.074400
      7 C14         -0.6490    -0.2560     0.2800 c3         1 CW2      -0.074400
      8 C15         -1.8700     0.4470    -0.2990 c3         1 CW2      -0.072400
      9 C16         -3.1790    -0.1260     0.2270 c3         1 CW2      -0.094400
     10 C17         -4.3890     0.5800    -0.3620 c3         1 CW2       0.103000
     11 C19         -6.8170     0.4990    -0.0900 c          1 CW2       0.598100
     12 C21         -7.9610    -0.3250     0.5020 c3         1 CW2       0.209300
     13 N09          5.6330    -0.0170    -0.1670 ns         1 CW2      -0.500900
     14 N18         -5.6150    -0.0350     0.1150 ns         1 CW2      -0.500900
     15 O08          7.0260    -1.5830     0.6850 o          1 CW2      -0.553600
     16 O20         -7.0320     1.5440    -0.6730 o          1 CW2      -0.553600
     17 CL6          8.7320    -0.8020    -1.8150 cl         1 CW2      -0.198250
     18 CL2         -8.6860     0.6020     1.8290 cl         1 CW2      -0.198250
     19 CL3         -9.1580    -0.6320    -0.7620 cl         1 CW2      -0.198250
     20 H1           7.6780     1.1470    -1.0480 h2         1 CW2       0.092700
     21 H3           4.3940    -0.5390     1.4350 h1         1 CW2       0.056950
     22 H4           4.3610    -1.6520     0.0750 h1         1 CW2       0.056950
     23 H5           3.2670     1.2000     0.0140 hc         1 CW2       0.044700
     24 H6           3.2080     0.0570    -1.3180 hc         1 CW2       0.044700
     25 H7           1.8210    -1.4910     0.0900 hc         1 CW2       0.044200
     26 H8           1.8770    -0.3370     1.4050 hc         1 CW2       0.044200
     27 H9           0.7340     1.3610    -0.0410 hc         1 CW2       0.039950
     28 H10          0.6750     0.2020    -1.3510 hc         1 CW2       0.039950
     29 H11         -0.7130    -1.3280     0.0650 hc         1 CW2       0.039950
     30 H12         -0.6610    -0.1650     1.3720 hc         1 CW2       0.039950
     31 H13         -1.8180     1.5170    -0.0700 hc         1 CW2       0.044200
     32 H14         -1.8510     0.3680    -1.3910 hc         1 CW2       0.044200
     33 H15         -3.2280    -1.1930    -0.0120 hc         1 CW2       0.044700
     34 H16         -3.2080    -0.0460     1.3170 hc         1 CW2       0.044700
     35 H17         -4.3840     1.6360    -0.0840 h1         1 CW2       0.056950
     36 H18         -4.3560     0.5350    -1.4550 h1         1 CW2       0.056950
     37 H19         -7.6470    -1.2860     0.9040 h2         1 CW2       0.092700
     38 H20          5.5700     0.8460    -0.6840 hn         1 CW2       0.317500
     39 H21         -5.5430    -0.9220     0.5880 hn         1 CW2       0.317500
     40 CL4          9.1570     0.6130     0.6900 cl         1 CW2      -0.198250
@<TRIPOS>BOND
     1     1     2 1   
     2     1    17 1   
     3     1    20 1   
     4     1    40 1   
     5     2    13 1   
     6     2    15 2   
     7     3     4 1   
     8     3    13 1   
     9     3    21 1   
    10     3    22 1   
    11     4     5 1   
    12     4    23 1   
    13     4    24 1   
    14     5     6 1   
    15     5    25 1   
    16     5    26 1   
    17     6     7 1   
    18     6    27 1   
    19     6    28 1   
    20     7     8 1   
    21     7    29 1   
    22     7    30 1   
    23     8     9 1   
    24     8    31 1   
    25     8    32 1   
    26     9    10 1   
    27     9    33 1   
    28     9    34 1   
    29    10    14 1   
    30    10    35 1   
    31    10    36 1   
    32    11    12 1   
    33    11    14 1   
    34    11    16 2   
    35    12    18 1   
    36    12    19 1   
    37    12    37 1   
    38    13    38 1   
    39    14    39 1   
@<TRIPOS>SUBSTRUCTURE
     1 CW2         1 TEMP              0 ****  ****    0 ROOT
