@<TRIPOS>MOLECULE
CW4
   36    38     1     0     0
SMALL
No Charge or Current Charge


@<TRIPOS>ATOM
      1 C1           1.5580     3.0140     0.6710 ca         1 CW4      -0.082000
      2 C2           2.7660     2.6370     0.0630 ca         1 CW4      -0.109000
      3 C3           2.9670     1.3070    -0.3460 ca         1 CW4      -0.049000
      4 C15         -1.1550    -0.4760    -1.7290 cc         1 CW4       0.418400
      5 C17         -3.1750     0.2420    -1.5300 cd         1 CW4       0.256900
      6 C18         -2.6620     0.2480    -0.2540 cc         1 CW4      -0.184800
      7 C19         -3.2880     0.6860     0.9870 ce         1 CW4      -0.142200
      8 C20         -3.9620     1.8450     1.1210 c2         1 CW4      -0.299000
      9 C10         -0.3460    -0.3130     0.6880 c6         1 CW4       0.103600
     10 C4           0.5500     2.0590     0.8730 ca         1 CW4      -0.095000
     11 C5           0.7490     0.7240     0.4730 ca         1 CW4      -0.079300
     12 C6           1.9610     0.3370    -0.1430 ca         1 CW4      -0.177600
     13 C7           2.1740    -1.0890    -0.6140 c          1 CW4       0.676700
     14 C9           0.2770    -1.7390     0.8260 c6         1 CW4       0.200000
     15 N14         -1.3620    -0.2020    -0.3910 na         1 CW4      -0.164500
     16 N16         -2.2440    -0.2170    -2.4390 nd         1 CW4      -0.672000
     17 O11          3.0640    -1.3900    -1.3960 o          1 CW4      -0.488000
     18 O8           1.2240    -2.0070    -0.2280 os         1 CW4      -0.441100
     19 H1           1.4020     4.0440     0.9830 ha         1 CW4       0.122000
     20 H2           3.5480     3.3770    -0.0960 ha         1 CW4       0.124000
     21 H3           3.9070     1.0340    -0.8220 ha         1 CW4       0.142000
     22 H4          -1.5570    -2.7380     1.5290 hc         1 CW4       0.057033
     23 H5          -1.2750    -2.9290    -0.2080 hc         1 CW4       0.057033
     24 H6          -0.3190    -3.8600     0.9450 hc         1 CW4       0.057033
     25 H7           0.3820    -1.7970     3.0280 hc         1 CW4       0.057033
     26 H8           1.5540    -2.8590     2.2380 hc         1 CW4       0.057033
     27 H9           1.8290    -1.1140     2.2840 hc         1 CW4       0.057033
     28 H10         -0.2110    -0.8410    -2.1150 h5         1 CW4       0.063100
     29 H11         -4.1680     0.5430    -1.8420 h4         1 CW4       0.038100
     30 H12         -3.1210     0.0450     1.8560 ha         1 CW4       0.163000
     31 H13         -4.1110     2.5240     0.2810 ha         1 CW4       0.168500
     32 H14         -4.3850     2.1520     2.0790 ha         1 CW4       0.168500
     33 H15         -0.8400    -0.0820     1.6410 h1         1 CW4       0.084700
     34 H16         -0.3880     2.3550     1.3390 ha         1 CW4       0.125000
     35 C12         -0.7800    -2.8800     0.7690 c3         1 CW4      -0.105600
     36 C13          1.0570    -1.8840     2.1680 c3         1 CW4      -0.105600
@<TRIPOS>BOND
     1     1     2 ar  
     2     1    10 ar  
     3     1    19 1   
     4     2     3 ar  
     5     2    20 1   
     6     3    12 ar  
     7     3    21 1   
     8     4    15 1   
     9     4    16 2   
    10     4    28 1   
    11     5     6 2   
    12     5    16 1   
    13     5    29 1   
    14     6     7 1   
    15     6    15 1   
    16     7     8 2   
    17     7    30 1   
    18     8    31 1   
    19     8    32 1   
    20     9    11 1   
    21     9    14 1   
    22     9    15 1   
    23     9    33 1   
    24    10    11 ar  
    25    10    34 1   
    26    11    12 ar  
    27    12    13 1   
    28    13    17 2   
    29    13    18 1   
    30    14    18 1   
    31    14    35 1   
    32    14    36 1   
    33    22    35 1   
    34    23    35 1   
    35    24    35 1   
    36    25    36 1   
    37    26    36 1   
    38    27    36 1   
@<TRIPOS>SUBSTRUCTURE
     1 CW4         1 TEMP              0 ****  ****    0 ROOT
