@<TRIPOS>MOLECULE
CW4
   36    38     1     0     0
SMALL
abcg2


@<TRIPOS>ATOM
      1 C1           2.0820     2.9180     0.5210 ca         1 CW4      -0.082000
      2 C2           3.2080     2.3460    -0.0610 ca         1 CW4      -0.109000
      3 C3           3.2000     1.0060    -0.4070 ca         1 CW4      -0.049000
      4 C15         -1.0050     0.1700    -1.7100 cc         1 CW4       0.418400
      5 C17         -3.1050     0.4030    -1.5090 cd         1 CW4       0.256900
      6 C18         -2.6230     0.3060    -0.2270 cc         1 CW4      -0.184800
      7 C19         -3.3050     0.3530     1.0530 ce         1 CW4      -0.142200
      8 C20         -4.5870     0.6830     1.2150 c2         1 CW4      -0.299000
      9 C10         -0.2750    -0.0450     0.6720 c6         1 CW4       0.103600
     10 C4           0.9530     2.1520     0.7620 ca         1 CW4      -0.095000
     11 C5           0.9420     0.8060     0.4240 ca         1 CW4      -0.079300
     12 C6           2.0670     0.2340    -0.1640 ca         1 CW4      -0.177600
     13 C7           2.0520    -1.1860    -0.5780 c          1 CW4       0.676700
     14 C9           0.1310    -1.5140     0.8670 c6         1 CW4       0.200000
     15 N14         -1.2580     0.1530    -0.3810 na         1 CW4      -0.164500
     16 N16         -2.0950     0.3200    -2.4150 nd         1 CW4      -0.672000
     17 O11          2.9030    -1.6860    -1.2690 o          1 CW4      -0.488000
     18 O8           1.0110    -1.9240    -0.2050 os         1 CW4      -0.441100
     19 H1           2.0880     3.9650     0.7940 ha         1 CW4       0.122000
     20 H2           4.0880     2.9460    -0.2440 ha         1 CW4       0.124000
     21 H3           4.0720     0.5580    -0.8640 ha         1 CW4       0.142000
     22 H4          -1.7670    -2.2420     1.5800 hc         1 CW4       0.057033
     23 H5          -1.5590    -2.4250    -0.1660 hc         1 CW4       0.057033
     24 H6          -0.7030    -3.4900     0.9510 hc         1 CW4       0.057033
     25 H7           0.1630    -1.4760     3.0190 hc         1 CW4       0.057033
     26 H8           1.2220    -2.6920     2.3090 hc         1 CW4       0.057033
     27 H9           1.6980    -0.9880     2.3070 hc         1 CW4       0.057033
     28 H10         -0.0090     0.0890    -2.1180 h5         1 CW4       0.063100
     29 H11         -4.1330     0.5290    -1.8130 h4         1 CW4       0.038100
     30 H12         -2.7330     0.0970     1.9380 ha         1 CW4       0.163000
     31 H13         -5.2280     0.9630     0.3890 ha         1 CW4       0.168500
     32 H14         -5.0340     0.6800     2.1990 ha         1 CW4       0.168500
     33 H15         -0.7330     0.2850     1.6050 h1         1 CW4       0.084700
     34 H16          0.0800     2.6000     1.2200 ha         1 CW4       0.125000
     35 C12         -1.0460    -2.4670     0.7940 c3         1 CW4      -0.105600
     36 C13          0.8550    -1.6710     2.2000 c3         1 CW4      -0.105600
@<TRIPOS>BOND
     1     1     2 ar  
     2     1    10 ar  
     3     1    19 1   
     4     2     3 ar  
     5     2    20 1   
     6     3    12 ar  
     7     3    21 1   
     8     4    15 1   
     9     4    16 2   
    10     4    28 1   
    11     5     6 2   
    12     5    16 1   
    13     5    29 1   
    14     6     7 1   
    15     6    15 1   
    16     7     8 2   
    17     7    30 1   
    18     8    31 1   
    19     8    32 1   
    20     9    11 1   
    21     9    14 1   
    22     9    15 1   
    23     9    33 1   
    24    10    11 ar  
    25    10    34 1   
    26    11    12 ar  
    27    12    13 1   
    28    13    17 2   
    29    13    18 1   
    30    14    18 1   
    31    14    35 1   
    32    14    36 1   
    33    22    35 1   
    34    23    35 1   
    35    24    35 1   
    36    25    36 1   
    37    26    36 1   
    38    27    36 1   
@<TRIPOS>SUBSTRUCTURE
     1 CW4         1 TEMP              0 ****  ****    0 ROOT
