@<TRIPOS>MOLECULE
CW6
   33    34     1     0     0
SMALL
No Charge or Current Charge


@<TRIPOS>ATOM
      1 F18          3.9240   -18.6890     2.4330 f          1 CW6      -0.168000
      2 C7           3.1630   -17.7920     3.1030 ca         1 CW6       0.140000
      3 C6           3.2750   -17.7060     4.5000 ca         1 CW6      -0.112000
      4 C1           2.5010   -16.7810     5.2370 ca         1 CW6      -0.080300
      5 C10          1.6020   -15.9460     4.5270 ca         1 CW6      -0.084000
      6 C9           1.4890   -16.0320     3.1270 ca         1 CW6      -0.186000
      7 C8           2.2680   -16.9530     2.4080 ca         1 CW6       0.099100
      8 O1           2.1460   -17.0230     1.0460 oh         1 CW6      -0.515100
      9 C2           2.6660   -16.7300     6.7760 c3         1 CW6       0.060600
     10 C5           1.9260   -15.5310     7.4330 c3         1 CW6      -0.083100
     11 C3           2.0450   -18.0350     7.3480 c3         1 CW6      -0.083100
     12 C4           4.1720   -16.5750     7.1020 ca         1 CW6      -0.112300
     13 C11          4.8960   -15.5250     6.4910 ca         1 CW6      -0.066500
     14 C12          6.2640   -15.3430     6.7540 ca         1 CW6      -0.175500
     15 C13          6.9320   -16.2030     7.6330 ca         1 CW6       0.138100
     16 O2           8.2590   -16.0190     7.8820 oh         1 CW6      -0.534100
     17 C14          6.2320   -17.2480     8.2520 ca         1 CW6      -0.175500
     18 C15          4.8630   -17.4350     7.9920 ca         1 CW6      -0.066500
     19 H1           3.9750   -18.3640     5.0100 ha         1 CW6       0.137000
     20 H2           0.9770   -15.2220     5.0420 ha         1 CW6       0.118000
     21 H3           0.7920   -15.3780     2.6080 ha         1 CW6       0.115000
     22 H4           1.4780   -16.3650     0.7560 ho         1 CW6       0.466000
     23 H5           2.1320   -15.4970     8.5100 hc         1 CW6       0.038700
     24 H6           2.2500   -14.5760     7.0030 hc         1 CW6       0.038700
     25 H7           0.8400   -15.6150     7.3080 hc         1 CW6       0.038700
     26 H8           2.0610   -18.0370     8.4450 hc         1 CW6       0.038700
     27 H9           0.9990   -18.1320     7.0330 hc         1 CW6       0.038700
     28 H10          2.5820   -18.9230     6.9930 hc         1 CW6       0.038700
     29 H11          4.3970   -14.8460     5.8030 ha         1 CW6       0.114500
     30 H12          6.8050   -14.5310     6.2730 ha         1 CW6       0.120500
     31 H13          8.5540   -16.7080     8.5150 ho         1 CW6       0.463000
     32 H14          6.7420   -17.9210     8.9380 ha         1 CW6       0.120500
     33 H15          4.3570   -18.2540     8.4950 ha         1 CW6       0.114500
@<TRIPOS>BOND
     1     1     2 1   
     2     2     3 ar  
     3     2     7 ar  
     4     3     4 ar  
     5     3    19 1   
     6     4     5 ar  
     7     4     9 1   
     8     5     6 ar  
     9     5    20 1   
    10     6     7 ar  
    11     6    21 1   
    12     7     8 1   
    13     8    22 1   
    14     9    10 1   
    15     9    11 1   
    16     9    12 1   
    17    10    23 1   
    18    10    24 1   
    19    10    25 1   
    20    11    26 1   
    21    11    27 1   
    22    11    28 1   
    23    12    13 ar  
    24    12    18 ar  
    25    13    14 ar  
    26    13    29 1   
    27    14    15 ar  
    28    14    30 1   
    29    15    16 1   
    30    15    17 ar  
    31    16    31 1   
    32    17    18 ar  
    33    17    32 1   
    34    18    33 1   
@<TRIPOS>SUBSTRUCTURE
     1 CW6         1 TEMP              0 ****  ****    0 ROOT
