@<TRIPOS>MOLECULE
CW6
   33    34     1     0     0
SMALL
bcc


@<TRIPOS>ATOM
      1 F18          3.8090   -18.6680     2.4340 f          1 CW6      -0.132900
      2 C7           3.0940   -17.7700     3.1340 ca         1 CW6       0.104900
      3 C6           3.2430   -17.6920     4.4960 ca         1 CW6      -0.130000
      4 C1           2.5130   -16.7610     5.2410 ca         1 CW6      -0.080300
      5 C10          1.6430   -15.9290     4.5510 ca         1 CW6      -0.102000
      6 C9           1.4990   -16.0140     3.1690 ca         1 CW6      -0.204000
      7 C8           2.2240   -16.9370     2.4330 ca         1 CW6       0.099100
      8 O1           2.1480   -17.0800     1.0970 oh         1 CW6      -0.476100
      9 C2           2.6890   -16.7330     6.7560 c3         1 CW6       0.060600
     10 C5           1.9490   -15.5560     7.4030 c3         1 CW6      -0.083100
     11 C3           2.0900   -18.0280     7.3210 c3         1 CW6      -0.083100
     12 C4           4.1740   -16.5920     7.0800 ca         1 CW6      -0.112300
     13 C11          4.9070   -15.5580     6.4920 ca         1 CW6      -0.084500
     14 C12          6.2460   -15.3590     6.7710 ca         1 CW6      -0.193500
     15 C13          6.9040   -16.2060     7.6620 ca         1 CW6       0.138100
     16 O2           8.2130   -15.9780     7.9020 oh         1 CW6      -0.495100
     17 C14          6.1960   -17.2410     8.2570 ca         1 CW6      -0.193500
     18 C15          4.8480   -17.4240     7.9650 ca         1 CW6      -0.084500
     19 H1           3.9460   -18.3610     4.9810 ha         1 CW6       0.155000
     20 H2           1.0550   -15.1880     5.0740 ha         1 CW6       0.136000
     21 H3           0.8140   -15.3450     2.6610 ha         1 CW6       0.133000
     22 H4           1.5160   -16.4510     0.7320 ho         1 CW6       0.427000
     23 H5           2.1220   -15.5640     8.4800 hc         1 CW6       0.038700
     24 H6           2.2880   -14.5920     7.0200 hc         1 CW6       0.038700
     25 H7           0.8710   -15.6240     7.2470 hc         1 CW6       0.038700
     26 H8           2.1390   -18.0490     8.4110 hc         1 CW6       0.038700
     27 H9           1.0380   -18.1000     7.0410 hc         1 CW6       0.038700
     28 H10          2.5970   -18.9170     6.9420 hc         1 CW6       0.038700
     29 H11          4.4220   -14.8900     5.7900 ha         1 CW6       0.132500
     30 H12          6.7890   -14.5500     6.2970 ha         1 CW6       0.138500
     31 H13          8.5530   -16.6190     8.5350 ho         1 CW6       0.424000
     32 H14          6.6880   -17.9140     8.9510 ha         1 CW6       0.138500
     33 H15          4.3350   -18.2440     8.4500 ha         1 CW6       0.132500
@<TRIPOS>BOND
     1     1     2 1   
     2     2     3 ar  
     3     2     7 ar  
     4     3     4 ar  
     5     3    19 1   
     6     4     5 ar  
     7     4     9 1   
     8     5     6 ar  
     9     5    20 1   
    10     6     7 ar  
    11     6    21 1   
    12     7     8 1   
    13     8    22 1   
    14     9    10 1   
    15     9    11 1   
    16     9    12 1   
    17    10    23 1   
    18    10    24 1   
    19    10    25 1   
    20    11    26 1   
    21    11    27 1   
    22    11    28 1   
    23    12    13 ar  
    24    12    18 ar  
    25    13    14 ar  
    26    13    29 1   
    27    14    15 ar  
    28    14    30 1   
    29    15    16 1   
    30    15    17 ar  
    31    16    31 1   
    32    17    18 ar  
    33    17    32 1   
    34    18    33 1   
@<TRIPOS>SUBSTRUCTURE
     1 CW6         1 TEMP              0 ****  ****    0 ROOT
