@<TRIPOS>MOLECULE
CW7
   94   100     1     0     0
SMALL
No Charge or Current Charge


@<TRIPOS>ATOM
      1 C1          27.4010   -16.0990    -4.1300 cx         1 CW7       0.096600
      2 O1          27.9710   -15.7450    -5.4090 op         1 CW7      -0.443000
      3 CAA         21.3190   -23.0770    -0.0770 c2         1 CW7      -0.310000
      4 CAB         22.3730   -22.3780     0.3990 c2         1 CW7      -0.152400
      5 CAC         22.3370   -21.8510     1.8420 c5         1 CW7      -0.020500
      6 CAD         21.9610   -22.9920     2.8520 c5         1 CW7      -0.071400
      7 CAE         20.5760   -22.5640     3.4100 c5         1 CW7      -0.060400
      8 CAF         20.6890   -21.0130     3.4500 c5         1 CW7       0.176000
      9 CAG         21.2220   -20.7490     1.9950 c5         1 CW7      -0.079700
     10 CAH         21.6970   -19.2810     1.7350 c3         1 CW7      -0.064400
     11 CAI         22.0460   -18.7660     0.2890 c5         1 CW7      -0.001800
     12 CAJ         22.5560   -17.2870     0.3810 c5         1 CW7      -0.079400
     13 CAK         24.0460   -17.4720     0.7930 c5         1 CW7      -0.053200
     14 CAL         24.4250   -18.7520     0.0730 c2         1 CW7      -0.081400
     15 CAM         23.3230   -19.4350    -0.2920 c2         1 CW7      -0.145400
     16 CAN         23.2460   -20.6590    -1.2110 c3         1 CW7       0.238500
     17 CAO         23.5690   -22.0030    -0.4580 c3         1 CW7       0.197500
     18 OAP         23.8950   -23.1360    -1.3050 oh         1 CW7      -0.718000
     19 OAQ         24.1390   -20.4610    -2.3300 os         1 CW7      -0.482000
     20 CAR         23.7150   -21.0090    -3.5920 c6         1 CW7       0.378300
     21 CAS         24.8930   -21.0320    -4.6240 c6         1 CW7       0.160300
     22 CAT         25.3900   -19.5790    -4.8280 c5         1 CW7       0.076300
     23 CAU         24.2420   -18.5440    -5.0760 c5         1 CW7       0.313000
     24 CAV         22.9090   -18.7930    -4.2890 c6         1 CW7       0.205300
     25 OAW         22.6120   -20.2090    -4.0880 os         1 CW7      -0.446000
     26 CAX         21.6490   -18.0720    -4.8560 c3         1 CW7       0.170600
     27 OAY         21.2490   -18.6280    -6.1270 os         1 CW7      -0.431000
     28 CAZ         20.1020   -17.9970    -6.7180 c3         1 CW7       0.143900
     29 OBA         24.1700   -18.5400    -6.5050 os         1 CW7      -0.403000
     30 CBB         25.5580   -18.3120    -6.7430 c5         1 CW7       0.322300
     31 OBC         26.1440   -19.4670    -6.0740 os         1 CW7      -0.468000
     32 CBD         25.7700   -17.0080    -5.8640 c5         1 CW7       0.135000
     33 OBE         24.8220   -17.2450    -4.7810 os         1 CW7      -0.454000
     34 CBF         25.3390   -15.7090    -6.5930 c3         1 CW7      -0.091100
     35 CBG         27.2410   -16.9980    -5.3300 cx         1 CW7       0.088300
     36 OBJ         24.4900   -21.5820    -5.8970 oh         1 CW7      -0.702000
     37 CBL         26.7290   -19.1460     1.0590 c3         1 CW7      -0.085600
     38 CBM         26.4780   -18.0980    -1.2590 c3         1 CW7      -0.085600
     39 CBN         20.7390   -18.8220    -0.5910 c3         1 CW7      -0.085100
     40 CBO         19.3210   -20.3330     3.7730 c3         1 CW7       0.136600
     41 OBP         19.0490   -20.5130     5.1800 os         1 CW7      -0.448000
     42 CBQ         17.8020   -19.9510     5.6210 c3         1 CW7       0.143900
     43 OBR         21.6020   -20.5900     4.4690 oh         1 CW7      -0.708000
     44 H1          28.1200   -16.3750    -3.3590 h1         1 CW7       0.082700
     45 H1A         26.5670   -15.4770    -3.8040 h1         1 CW7       0.082700
     46 HAA         21.2740   -23.4270    -1.1090 ha         1 CW7       0.170500
     47 HAAA        20.4460   -23.3110     0.5320 ha         1 CW7       0.170500
     48 HAC         23.3150   -21.4430     2.1270 hc         1 CW7       0.063700
     49 HAD         21.9360   -23.9910     2.4020 hc         1 CW7       0.051700
     50 HADA        22.7010   -23.0420     3.6580 hc         1 CW7       0.051700
     51 HAE         19.7600   -22.8900     2.7550 hc         1 CW7       0.059700
     52 HAEA        20.3800   -22.9960     4.3980 hc         1 CW7       0.059700
     53 HAG         20.3980   -20.9340     1.2970 hc         1 CW7       0.056700
     54 HAH         20.9260   -18.6080     2.1280 hc         1 CW7       0.042200
     55 HAHA        22.5580   -19.1070     2.3890 hc         1 CW7       0.042200
     56 HAJ         22.4950   -16.7890    -0.5940 hc         1 CW7       0.046200
     57 HAJA        21.9920   -16.6710     1.0910 hc         1 CW7       0.046200
     58 HAK         24.6470   -16.6170     0.4650 hc         1 CW7       0.054700
     59 HAKA        24.1830   -17.5670     1.8750 hc         1 CW7       0.054700
     60 HAN         22.2190   -20.7430    -1.5850 h1         1 CW7       0.063700
     61 HAO         24.4260   -21.8060     0.2010 h1         1 CW7       0.051700
     62 HOAP        23.5020   -23.9080    -0.8440 ho         1 CW7       0.507000
     63 HAR         23.3690   -22.0420    -3.4440 h2         1 CW7       0.101700
     64 H21         25.7140   -21.6280    -4.1990 h1         1 CW7       0.069700
     65 HAT         26.0190   -19.2900    -3.9770 h1         1 CW7       0.093700
     66 HAV         23.0660   -18.3600    -3.2910 h1         1 CW7       0.073700
     67 HAX         20.8370   -18.1710    -4.1250 h1         1 CW7       0.035700
     68 HAXA        21.8800   -17.0040    -4.9590 h1         1 CW7       0.035700
     69 HAZ         19.8580   -18.4720    -7.6770 h1         1 CW7       0.028700
     70 HAZA        19.2270   -18.0840    -6.0610 h1         1 CW7       0.028700
     71 HAZB        20.2950   -16.9320    -6.9030 h1         1 CW7       0.028700
     72 HBB         25.8320   -18.2220    -7.8040 h2         1 CW7       0.130700
     73 HBF         25.4000   -14.8380    -5.9310 hc         1 CW7       0.056367
     74 HBFA        25.9770   -15.5150    -7.4630 hc         1 CW7       0.056367
     75 HBFB        24.3040   -15.7800    -6.9500 hc         1 CW7       0.056367
     76 HBG         27.8670   -17.8890    -5.3820 h1         1 CW7       0.092700
     77 H34         24.9090   -20.9730    -6.5520 ho         1 CW7       0.523000
     78 HBK         25.9460   -20.0820    -0.6760 hc         1 CW7       0.067700
     79 HBL         27.7550   -19.4590     0.8330 hc         1 CW7       0.035533
     80 HBLA        26.7710   -18.1670     1.5520 hc         1 CW7       0.035533
     81 HBLB        26.2990   -19.8680     1.7640 hc         1 CW7       0.035533
     82 HBM         27.4560   -18.4490    -1.6100 hc         1 CW7       0.035533
     83 HBMA        25.8150   -18.0020    -2.1250 hc         1 CW7       0.035533
     84 HBMB        26.6100   -17.1010    -0.8230 hc         1 CW7       0.035533
     85 HBN         20.9280   -18.4310    -1.5980 hc         1 CW7       0.041033
     86 HBNA        20.3610   -19.8440    -0.7060 hc         1 CW7       0.041033
     87 HBNB        19.9360   -18.2200    -0.1490 hc         1 CW7       0.041033
     88 HBO         19.3670   -19.2640     3.5320 h1         1 CW7       0.026200
     89 HBOA        18.5310   -20.7860     3.1590 h1         1 CW7       0.026200
     90 HBQ         17.6640   -20.1250     6.6950 h1         1 CW7       0.030367
     91 HBQA        17.7780   -18.8680     5.4430 h1         1 CW7       0.030367
     92 HBQB        16.9590   -20.4090     5.0880 h1         1 CW7       0.030367
     93 HOBR        21.0180   -20.4450     5.2500 ho         1 CW7       0.496000
     94 CBK         25.8830   -19.0830    -0.2310 c3         1 CW7      -0.023500
@<TRIPOS>BOND
     1     1     2 1   
     2     1    35 1   
     3     1    44 1   
     4     1    45 1   
     5     2    35 1   
     6     3     4 2   
     7     3    46 1   
     8     3    47 1   
     9     4     5 1   
    10     4    17 1   
    11     5     6 1   
    12     5     9 1   
    13     5    48 1   
    14     6     7 1   
    15     6    49 1   
    16     6    50 1   
    17     7     8 1   
    18     7    51 1   
    19     7    52 1   
    20     8     9 1   
    21     8    40 1   
    22     8    43 1   
    23     9    10 1   
    24     9    53 1   
    25    10    11 1   
    26    10    54 1   
    27    10    55 1   
    28    11    12 1   
    29    11    15 1   
    30    11    39 1   
    31    12    13 1   
    32    12    56 1   
    33    12    57 1   
    34    13    14 1   
    35    13    58 1   
    36    13    59 1   
    37    14    15 2   
    38    14    94 1   
    39    15    16 1   
    40    16    17 1   
    41    16    19 1   
    42    16    60 1   
    43    17    18 1   
    44    17    61 1   
    45    18    62 1   
    46    19    20 1   
    47    20    21 1   
    48    20    25 1   
    49    20    63 1   
    50    21    22 1   
    51    21    36 1   
    52    21    64 1   
    53    22    23 1   
    54    22    31 1   
    55    22    65 1   
    56    23    24 1   
    57    23    29 1   
    58    23    33 1   
    59    24    25 1   
    60    24    26 1   
    61    24    66 1   
    62    26    27 1   
    63    26    67 1   
    64    26    68 1   
    65    27    28 1   
    66    28    69 1   
    67    28    70 1   
    68    28    71 1   
    69    29    30 1   
    70    30    31 1   
    71    30    32 1   
    72    30    72 1   
    73    32    33 1   
    74    32    34 1   
    75    32    35 1   
    76    34    73 1   
    77    34    74 1   
    78    34    75 1   
    79    35    76 1   
    80    36    77 1   
    81    37    79 1   
    82    37    80 1   
    83    37    81 1   
    84    37    94 1   
    85    38    82 1   
    86    38    83 1   
    87    38    84 1   
    88    38    94 1   
    89    39    85 1   
    90    39    86 1   
    91    39    87 1   
    92    40    41 1   
    93    40    88 1   
    94    40    89 1   
    95    41    42 1   
    96    42    90 1   
    97    42    91 1   
    98    42    92 1   
    99    43    93 1   
   100    78    94 1   
@<TRIPOS>SUBSTRUCTURE
     1 CW7         1 TEMP              0 ****  ****    0 ROOT
