@<TRIPOS>MOLECULE
CW7
   94   100     1     0     0
SMALL
abcg2


@<TRIPOS>ATOM
      1 C1          28.0040   -17.6190    -4.6560 cx         1 CW7       0.096600
      2 O1          27.9030   -16.2610    -5.1360 op         1 CW7      -0.443000
      3 CAA         22.0090   -23.4810     0.6090 c2         1 CW7      -0.310000
      4 CAB         22.7500   -22.3850     0.7570 c2         1 CW7      -0.152400
      5 CAC         22.6470   -21.4910     1.9730 c5         1 CW7      -0.020500
      6 CAD         22.6700   -22.2630     3.3210 c5         1 CW7      -0.071400
      7 CAE         21.2310   -22.2300     3.8380 c5         1 CW7      -0.060400
      8 CAF         20.7190   -20.8580     3.4130 c5         1 CW7       0.176000
      9 CAG         21.3120   -20.6720     1.9860 c5         1 CW7      -0.079700
     10 CAH         21.4650   -19.2080     1.5950 c3         1 CW7      -0.064400
     11 CAI         21.7620   -18.8570     0.1140 c5         1 CW7      -0.001800
     12 CAJ         22.1200   -17.3520     0.0890 c5         1 CW7      -0.079400
     13 CAK         23.6180   -17.3110     0.4200 c5         1 CW7      -0.053200
     14 CAL         24.1150   -18.6310    -0.1330 c2         1 CW7      -0.081400
     15 CAM         23.0900   -19.4600    -0.3740 c2         1 CW7      -0.145400
     16 CAN         23.1790   -20.7680    -1.1210 c3         1 CW7       0.238500
     17 CAO         23.7320   -21.9630    -0.3160 c3         1 CW7       0.197500
     18 OAP         23.9930   -22.9990    -1.2580 oh         1 CW7      -0.718000
     19 OAQ         24.0070   -20.5920    -2.2910 os         1 CW7      -0.482000
     20 CAR         23.3750   -20.8110    -3.5120 c6         1 CW7       0.378300
     21 CAS         24.4700   -21.0400    -4.5580 c6         1 CW7       0.160300
     22 CAT         25.2230   -19.7290    -4.7960 c5         1 CW7       0.076300
     23 CAU         24.3060   -18.5010    -4.9270 c5         1 CW7       0.313000
     24 CAV         23.1580   -18.4610    -3.9420 c6         1 CW7       0.205300
     25 OAW         22.5200   -19.7350    -3.8780 os         1 CW7      -0.446000
     26 CAX         22.1160   -17.3940    -4.1920 c3         1 CW7       0.170600
     27 OAY         21.3700   -17.6600    -5.3620 os         1 CW7      -0.431000
     28 CAZ         20.3630   -16.6850    -5.5800 c3         1 CW7       0.143900
     29 OBA         23.9600   -18.5710    -6.3120 os         1 CW7      -0.403000
     30 CBB         25.3010   -18.5910    -6.7530 c5         1 CW7       0.322300
     31 OBC         25.8710   -19.7250    -6.0910 os         1 CW7      -0.468000
     32 CBD         25.8400   -17.2910    -6.1110 c5         1 CW7       0.135000
     33 OBE         25.1180   -17.3310    -4.8440 os         1 CW7      -0.454000
     34 CBF         25.4300   -16.0490    -6.8850 c3         1 CW7      -0.091100
     35 CBG         27.3380   -17.3240    -5.9170 cx         1 CW7       0.088300
     36 OBJ         23.8410   -21.5280    -5.7300 oh         1 CW7      -0.702000
     37 CBL         26.2590   -19.0180     1.0730 c3         1 CW7      -0.085600
     38 CBM         26.2800   -17.8260    -1.1520 c3         1 CW7      -0.085600
     39 CBN         20.5540   -19.1780    -0.7630 c3         1 CW7      -0.085100
     40 CBO         19.2030   -20.7490     3.3900 c3         1 CW7       0.136600
     41 OBP         18.6700   -21.0430     4.6700 os         1 CW7      -0.448000
     42 CBQ         17.2560   -20.9460     4.6980 c3         1 CW7       0.143900
     43 OBR         21.2770   -19.9200     4.3520 oh         1 CW7      -0.708000
     44 H1          29.0050   -18.0370    -4.6720 h1         1 CW7       0.082700
     45 H1A         27.4110   -17.8270    -3.7760 h1         1 CW7       0.082700
     46 HAA         22.0750   -24.1000    -0.2760 ha         1 CW7       0.170500
     47 HAAA        21.3030   -23.7930     1.3680 ha         1 CW7       0.170500
     48 HAC         23.4830   -20.7940     1.9510 hc         1 CW7       0.063700
     49 HAD         23.0540   -23.2760     3.2060 hc         1 CW7       0.051700
     50 HADA        23.3210   -21.7410     4.0230 hc         1 CW7       0.051700
     51 HAE         20.6250   -22.9980     3.3530 hc         1 CW7       0.059700
     52 HAEA        21.1520   -22.3730     4.9150 hc         1 CW7       0.059700
     53 HAG         20.6160   -21.1590     1.3020 hc         1 CW7       0.056700
     54 HAH         20.5430   -18.6750     1.8520 hc         1 CW7       0.042200
     55 HAHA        22.2570   -18.7760     2.2100 hc         1 CW7       0.042200
     56 HAJ         21.9640   -16.9660    -0.9220 hc         1 CW7       0.046200
     57 HAJA        21.5020   -16.7700     0.7740 hc         1 CW7       0.046200
     58 HAK         24.1230   -16.4570    -0.0350 hc         1 CW7       0.054700
     59 HAKA        23.7980   -17.2390     1.4980 hc         1 CW7       0.054700
     60 HAN         22.1820   -21.0560    -1.4600 h1         1 CW7       0.063700
     61 HAO         24.6690   -21.6570     0.1640 h1         1 CW7       0.051700
     62 HOAP        24.2390   -23.7910    -0.7630 ho         1 CW7       0.507000
     63 HAR         22.7140   -21.6790    -3.4760 h2         1 CW7       0.101700
     64 H21         25.1660   -21.7870    -4.1650 h1         1 CW7       0.069700
     65 HAT         25.9580   -19.5780    -4.0080 h1         1 CW7       0.093700
     66 HAV         23.6100   -18.2310    -2.9710 h1         1 CW7       0.073700
     67 HAX         21.4490   -17.3580    -3.3230 h1         1 CW7       0.035700
     68 HAXA        22.6240   -16.4250    -4.2660 h1         1 CW7       0.035700
     69 HAZ         19.8280   -16.9670    -6.4860 h1         1 CW7       0.028700
     70 HAZA        19.6590   -16.6510    -4.7390 h1         1 CW7       0.028700
     71 HAZB        20.7990   -15.6880    -5.7120 h1         1 CW7       0.028700
     72 HBB         25.3900   -18.6920    -7.8300 h2         1 CW7       0.130700
     73 HBF         25.6630   -15.1620    -6.2950 hc         1 CW7       0.056367
     74 HBFA        25.9770   -15.9910    -7.8280 hc         1 CW7       0.056367
     75 HBFB        24.3620   -16.0660    -7.0930 hc         1 CW7       0.056367
     76 HBG         27.8780   -17.5240    -6.8400 h1         1 CW7       0.092700
     77 H34         24.4150   -21.3000    -6.4750 ho         1 CW7       0.523000
     78 HBK         25.7040   -19.8510    -0.8170 hc         1 CW7       0.067700
     79 HBL         27.3190   -19.2550     0.9580 hc         1 CW7       0.035533
     80 HBLA        26.1800   -18.0810     1.6290 hc         1 CW7       0.035533
     81 HBLB        25.7930   -19.8050     1.6680 hc         1 CW7       0.035533
     82 HBM         27.3210   -18.1050    -1.3300 hc         1 CW7       0.035533
     83 HBMA        25.7900   -17.7070    -2.1190 hc         1 CW7       0.035533
     84 HBMB        26.2760   -16.8570    -0.6490 hc         1 CW7       0.035533
     85 HBN         20.7580   -18.9510    -1.8090 hc         1 CW7       0.041033
     86 HBNA        20.2670   -20.2290    -0.6990 hc         1 CW7       0.041033
     87 HBNB        19.6950   -18.5830    -0.4430 hc         1 CW7       0.041033
     88 HBO         18.9020   -19.7360     3.0880 h1         1 CW7       0.026200
     89 HBOA        18.8030   -21.4510     2.6470 h1         1 CW7       0.026200
     90 HBQ         16.9310   -21.1890     5.7080 h1         1 CW7       0.030367
     91 HBQA        16.9240   -19.9310     4.4450 h1         1 CW7       0.030367
     92 HBQB        16.7970   -21.6490     3.9920 h1         1 CW7       0.030367
     93 HOBR        21.0030   -19.0290     4.1000 ho         1 CW7       0.496000
     94 CBK         25.5850   -18.8980    -0.3040 c3         1 CW7      -0.023500
@<TRIPOS>BOND
     1     1     2 1   
     2     1    35 1   
     3     1    44 1   
     4     1    45 1   
     5     2    35 1   
     6     3     4 2   
     7     3    46 1   
     8     3    47 1   
     9     4     5 1   
    10     4    17 1   
    11     5     6 1   
    12     5     9 1   
    13     5    48 1   
    14     6     7 1   
    15     6    49 1   
    16     6    50 1   
    17     7     8 1   
    18     7    51 1   
    19     7    52 1   
    20     8     9 1   
    21     8    40 1   
    22     8    43 1   
    23     9    10 1   
    24     9    53 1   
    25    10    11 1   
    26    10    54 1   
    27    10    55 1   
    28    11    12 1   
    29    11    15 1   
    30    11    39 1   
    31    12    13 1   
    32    12    56 1   
    33    12    57 1   
    34    13    14 1   
    35    13    58 1   
    36    13    59 1   
    37    14    15 2   
    38    14    94 1   
    39    15    16 1   
    40    16    17 1   
    41    16    19 1   
    42    16    60 1   
    43    17    18 1   
    44    17    61 1   
    45    18    62 1   
    46    19    20 1   
    47    20    21 1   
    48    20    25 1   
    49    20    63 1   
    50    21    22 1   
    51    21    36 1   
    52    21    64 1   
    53    22    23 1   
    54    22    31 1   
    55    22    65 1   
    56    23    24 1   
    57    23    29 1   
    58    23    33 1   
    59    24    25 1   
    60    24    26 1   
    61    24    66 1   
    62    26    27 1   
    63    26    67 1   
    64    26    68 1   
    65    27    28 1   
    66    28    69 1   
    67    28    70 1   
    68    28    71 1   
    69    29    30 1   
    70    30    31 1   
    71    30    32 1   
    72    30    72 1   
    73    32    33 1   
    74    32    34 1   
    75    32    35 1   
    76    34    73 1   
    77    34    74 1   
    78    34    75 1   
    79    35    76 1   
    80    36    77 1   
    81    37    79 1   
    82    37    80 1   
    83    37    81 1   
    84    37    94 1   
    85    38    82 1   
    86    38    83 1   
    87    38    84 1   
    88    38    94 1   
    89    39    85 1   
    90    39    86 1   
    91    39    87 1   
    92    40    41 1   
    93    40    88 1   
    94    40    89 1   
    95    41    42 1   
    96    42    90 1   
    97    42    91 1   
    98    42    92 1   
    99    43    93 1   
   100    78    94 1   
@<TRIPOS>SUBSTRUCTURE
     1 CW7         1 TEMP              0 ****  ****    0 ROOT
