@<TRIPOS>MOLECULE
CW8
   38    39     1     0     0
SMALL
abcg2


@<TRIPOS>ATOM
      1 C5         -37.8450   -28.1040    58.1750 c3         1 CW8       0.102500
      2 C7         -39.3840   -28.0730    58.2380 c6         1 CW8      -0.058700
      3 C8         -39.9550   -29.3780    58.7990 c6         1 CW8      -0.073900
      4 C11        -41.4130   -26.8650    59.1560 c6         1 CW8      -0.072900
      5 C12        -39.8890   -26.8940    59.0730 c6         1 CW8      -0.073900
      6 C16        -36.6380   -30.6180    59.2660 c5         1 CW8       0.077000
      7 C17        -36.4240   -32.1150    59.2950 c5         1 CW8       0.178300
      8 C21        -36.4370   -31.4540    57.0070 c5         1 CW8       0.184800
      9 C23        -37.5990   -32.0990    56.3790 c1         1 CW8       0.289900
     10 N24        -38.4910   -32.6250    55.8800 n1         1 CW8      -0.435000
     11 C20        -35.7230   -32.3940    57.9860 c5         1 CW8      -0.118400
     12 F19        -37.6700   -32.7460    59.2820 f          1 CW8      -0.253000
     13 N15        -36.8520   -30.3420    57.8460 n          1 CW8      -0.430800
     14 C13        -37.4140   -29.2540    57.2720 c          1 CW8       0.606100
     15 N1         -37.3250   -26.8760    57.5900 n8         1 CW8      -0.973200
     16 C10        -41.9720   -28.1740    59.6980 c6         1 CW8      -0.076400
     17 C9         -41.4780   -29.3520    58.8680 c6         1 CW8      -0.072900
     18 H1         -37.4730   -28.2650    59.1960 h1         1 CW8       0.018700
     19 H2         -39.7490   -27.9450    57.2110 hc         1 CW8       0.085700
     20 H3         -39.6400   -30.2380    58.2000 hc         1 CW8       0.037700
     21 H4         -39.5590   -29.5380    59.8090 hc         1 CW8       0.037700
     22 H5         -41.7300   -26.0270    59.7800 hc         1 CW8       0.043450
     23 H6         -41.8240   -26.6820    58.1570 hc         1 CW8       0.043450
     24 H7         -39.4710   -26.9700    60.0840 hc         1 CW8       0.037700
     25 H8         -39.5420   -25.9460    58.6550 hc         1 CW8       0.037700
     26 H10        -37.4870   -30.3280    59.8810 h1         1 CW8       0.062700
     27 H11        -35.8780   -32.4520    60.1750 h1         1 CW8       0.075700
     28 H12        -35.7730   -31.1280    56.2040 h1         1 CW8       0.098700
     29 H15        -35.7500   -33.4400    57.6860 hc         1 CW8       0.077700
     30 H16        -34.6780   -32.0910    58.0650 hc         1 CW8       0.077700
     31 H17        -37.5120   -26.1070    58.2200 hn         1 CW8       0.397500
     32 H18        -36.3140   -26.9270    57.5330 hn         1 CW8       0.397500
     33 H20        -43.0640   -28.1460    59.7090 hc         1 CW8       0.038200
     34 H21        -41.6510   -28.3050    60.7370 hc         1 CW8       0.038200
     35 H22        -41.8830   -29.2770    57.8530 hc         1 CW8       0.043450
     36 H23        -41.8450   -30.2930    59.2840 hc         1 CW8       0.043450
     37 O14        -37.5730   -29.2120    56.0630 o          1 CW8      -0.555100
     38 H9         -35.7490   -30.1050    59.6400 h1         1 CW8       0.062700
@<TRIPOS>BOND
     1     1     2 1   
     2     1    14 1   
     3     1    15 1   
     4     1    18 1   
     5     2     3 1   
     6     2     5 1   
     7     2    19 1   
     8     3    17 1   
     9     3    20 1   
    10     3    21 1   
    11     4     5 1   
    12     4    16 1   
    13     4    22 1   
    14     4    23 1   
    15     5    24 1   
    16     5    25 1   
    17     6     7 1   
    18     6    13 1   
    19     6    26 1   
    20     6    38 1   
    21     7    11 1   
    22     7    12 1   
    23     7    27 1   
    24     8     9 1   
    25     8    11 1   
    26     8    13 1   
    27     8    28 1   
    28     9    10 3   
    29    11    29 1   
    30    11    30 1   
    31    13    14 1   
    32    14    37 2   
    33    15    31 1   
    34    15    32 1   
    35    16    17 1   
    36    16    33 1   
    37    16    34 1   
    38    17    35 1   
    39    17    36 1   
@<TRIPOS>SUBSTRUCTURE
     1 CW8         1 TEMP              0 ****  ****    0 ROOT
