@<TRIPOS>MOLECULE
CW8
   38    39     1     0     0
SMALL
No Charge or Current Charge


@<TRIPOS>ATOM
      1 C5         -37.8700   -28.0770    58.0480 c3         1 CW8       0.102500
      2 C7         -39.4330   -27.9810    58.1870 c6         1 CW8      -0.058700
      3 C8         -40.0840   -29.3500    58.5640 c6         1 CW8      -0.073900
      4 C11        -41.4120   -26.7950    59.3390 c6         1 CW8      -0.072900
      5 C12        -39.8700   -26.8940    59.2200 c6         1 CW8      -0.073900
      6 C16        -36.5960   -30.5840    59.2290 c5         1 CW8       0.077000
      7 C17        -36.2520   -32.0890    59.3900 c5         1 CW8       0.178300
      8 C21        -36.4770   -31.6590    56.9960 c5         1 CW8       0.184800
      9 C23        -37.6280   -32.4600    56.4970 c1         1 CW8       0.289900
     10 N24        -38.5220   -33.0760    56.0710 n1         1 CW8      -0.435000
     11 C20        -35.5900   -32.4210    58.0270 c5         1 CW8      -0.118400
     12 F19        -37.4110   -32.8480    59.5780 f          1 CW8      -0.253000
     13 N15        -36.8770   -30.4580    57.7750 n          1 CW8      -0.430800
     14 C13        -37.4200   -29.3070    57.1560 c          1 CW8       0.606100
     15 N1         -37.2690   -26.7620    57.6350 n8         1 CW8      -0.973200
     16 C10        -42.0370   -28.1610    59.7020 c6         1 CW8      -0.076400
     17 C9         -41.6240   -29.2450    58.6800 c6         1 CW8      -0.072900
     18 H1         -37.4890   -28.2480    59.0600 h1         1 CW8       0.018700
     19 H2         -39.8080   -27.6900    57.1950 hc         1 CW8       0.085700
     20 H3         -39.8450   -30.1150    57.8140 hc         1 CW8       0.037700
     21 H4         -39.6740   -29.7090    59.5180 hc         1 CW8       0.037700
     22 H5         -41.6790   -26.0490    60.1000 hc         1 CW8       0.043450
     23 H6         -41.8340   -26.4360    58.3900 hc         1 CW8       0.043450
     24 H7         -39.4420   -27.1230    60.2060 hc         1 CW8       0.037700
     25 H8         -39.4800   -25.9080    58.9340 hc         1 CW8       0.037700
     26 H10        -37.4570   -30.3090    59.8510 h1         1 CW8       0.062700
     27 H11        -35.5860   -32.2770    60.2420 h1         1 CW8       0.075700
     28 H12        -35.8910   -31.3870    56.1070 h1         1 CW8       0.098700
     29 H15        -35.5280   -33.4980    57.8350 hc         1 CW8       0.077700
     30 H16        -34.5640   -32.0360    58.0030 hc         1 CW8       0.077700
     31 H17        -37.5400   -26.0400    58.3110 hn         1 CW8       0.397500
     32 H18        -36.2460   -26.8070    57.7240 hn         1 CW8       0.397500
     33 H20        -43.1310   -28.0750    59.7350 hc         1 CW8       0.038200
     34 H21        -41.7160   -28.4600    60.7100 hc         1 CW8       0.038200
     35 H22        -42.0550   -29.0100    57.6960 hc         1 CW8       0.043450
     36 H23        -42.0420   -30.2160    58.9790 hc         1 CW8       0.043450
     37 O14        -37.5310   -29.2740    55.9340 o          1 CW8      -0.555100
     38 H9         -35.7460   -29.9510    59.5150 h1         1 CW8       0.062700
@<TRIPOS>BOND
     1     1     2 1   
     2     1    14 1   
     3     1    15 1   
     4     1    18 1   
     5     2     3 1   
     6     2     5 1   
     7     2    19 1   
     8     3    17 1   
     9     3    20 1   
    10     3    21 1   
    11     4     5 1   
    12     4    16 1   
    13     4    22 1   
    14     4    23 1   
    15     5    24 1   
    16     5    25 1   
    17     6     7 1   
    18     6    13 1   
    19     6    26 1   
    20     6    38 1   
    21     7    11 1   
    22     7    12 1   
    23     7    27 1   
    24     8     9 1   
    25     8    11 1   
    26     8    13 1   
    27     8    28 1   
    28     9    10 3   
    29    11    29 1   
    30    11    30 1   
    31    13    14 1   
    32    14    37 2   
    33    15    31 1   
    34    15    32 1   
    35    16    17 1   
    36    16    33 1   
    37    16    34 1   
    38    17    35 1   
    39    17    36 1   
@<TRIPOS>SUBSTRUCTURE
     1 CW8         1 TEMP              0 ****  ****    0 ROOT
