@<TRIPOS>MOLECULE
CW9
   59    61     1     0     0
SMALL
abcg2


@<TRIPOS>ATOM
      1 C7          19.9270     5.9090     4.6720 cc         1 CW9       0.195300
      2 C           19.3750     4.9800     0.0230 c3         1 CW9       0.140400
      3 C5          26.5490     7.2260     0.7780 c3         1 CW9       0.140400
      4 C10         23.3940     8.1180     6.1120 cc         1 CW9       0.433600
      5 C14         19.1470    10.6860     6.9860 c3         1 CW9       0.146900
      6 C15         20.1310     9.6040     9.3680 ca         1 CW9      -0.221000
      7 C11         24.5000     8.9200     6.6970 c3         1 CW9      -0.110400
      8 C6          21.9500     6.2170     3.6080 cd         1 CW9       0.595400
      9 N           22.7380     5.9950     2.5480 nh         1 CW9      -0.778300
     10 C3          24.1650     6.2910     2.4590 c3         1 CW9       0.196800
     11 C9          22.1450     7.8420     6.7050 cc         1 CW9      -0.216800
     12 C13         20.6210     9.2100     8.1210 ca         1 CW9       0.194600
     13 C12         21.6430     8.2590     8.0160 ca         1 CW9      -0.064800
     14 C8          21.4760     7.0830     5.7710 cd         1 CW9       0.175500
     15 C2          22.1290     5.3400     1.3910 c3         1 CW9       0.196800
     16 O1          25.7870     7.9520     1.7120 os         1 CW9      -0.444000
     17 O           20.5500     5.6090    -0.4320 os         1 CW9      -0.444000
     18 N1          20.7280     5.7260     3.6080 nc         1 CW9      -0.343000
     19 N2          20.2430     6.5530     5.7640 nd         1 CW9      -0.183000
     20 N3          23.5100     7.5810     4.9130 nd         1 CW9      -0.590100
     21 N4          22.3460     6.9350     4.7040 na         1 CW9      -0.136600
     22 C16         20.6860     9.0270    10.4960 ca         1 CW9       0.063100
     23 BR          20.0310     9.5480    12.1920 br         1 CW9      -0.107100
     24 C17         21.6980     8.0860    10.4440 ca         1 CW9      -0.221000
     25 C18         22.1700     7.7040     9.1870 ca         1 CW9       0.194600
     26 O3          23.1370     6.7920     9.0140 os         1 CW9      -0.326100
     27 C19         23.7030     6.1610    10.1460 c3         1 CW9       0.146900
     28 C20         18.5680     5.2990     4.5690 c3         1 CW9      -0.132400
     29 H1          18.9000     4.5070    -0.8360 h1         1 CW9       0.030867
     30 H2          19.5660     4.2080     0.7750 h1         1 CW9       0.030867
     31 H3          18.6710     5.7010     0.4540 h1         1 CW9       0.030867
     32 H4          27.5480     7.6610     0.7570 h1         1 CW9       0.030867
     33 H5          26.6490     6.1660     1.0350 h1         1 CW9       0.030867
     34 H6          26.1250     7.2890    -0.2310 h1         1 CW9       0.030867
     35 H7          18.9470    10.9420     5.9490 h1         1 CW9       0.042367
     36 H8          18.2270    10.3100     7.4390 h1         1 CW9       0.042367
     37 H9          19.4620    11.5880     7.5170 h1         1 CW9       0.042367
     38 H10         19.3420    10.3370     9.4590 ha         1 CW9       0.134000
     39 H11         25.3160     9.0380     5.9870 hc         1 CW9       0.054367
     40 H12         24.1480     9.9110     6.9890 hc         1 CW9       0.054367
     41 H13         24.8900     8.4400     7.5950 hc         1 CW9       0.054367
     42 H14         23.9090     8.4120     2.2750 h1         1 CW9       0.053950
     43 H15         24.0120     7.5750     0.7210 h1         1 CW9       0.053950
     44 H16         21.8750     7.0400     0.0880 h1         1 CW9       0.053950
     45 H17         20.5570     6.8240     1.2420 h1         1 CW9       0.053950
     46 H18         24.6220     5.4580     1.9220 h1         1 CW9       0.069950
     47 H19         24.6100     6.3190     3.4470 h1         1 CW9       0.069950
     48 H20         21.5600     4.4730     1.7230 h1         1 CW9       0.069950
     49 H21         22.9420     4.9730     0.7660 h1         1 CW9       0.069950
     50 H22         22.0980     7.6600    11.3520 ha         1 CW9       0.134000
     51 H23         24.4420     5.4610     9.7660 h1         1 CW9       0.042367
     52 H24         24.2020     6.8750    10.8060 h1         1 CW9       0.042367
     53 H25         22.9570     5.6080    10.7210 h1         1 CW9       0.042367
     54 H26         18.0600     5.6560     3.6720 hc         1 CW9       0.059367
     55 H27         18.6460     4.2150     4.4810 hc         1 CW9       0.059367
     56 H28         17.9630     5.5380     5.4400 hc         1 CW9       0.059367
     57 O2          20.1660     9.7050     6.9630 os         1 CW9      -0.326100
     58 C4          24.4260     7.6130     1.7390 c3         1 CW9       0.139600
     59 C1          21.2480     6.2910     0.5780 c3         1 CW9       0.139600
@<TRIPOS>BOND
     1     1    18 1   
     2     1    19 2   
     3     1    28 1   
     4     2    17 1   
     5     2    29 1   
     6     2    30 1   
     7     2    31 1   
     8     3    16 1   
     9     3    32 1   
    10     3    33 1   
    11     3    34 1   
    12     4     7 1   
    13     4    11 1   
    14     4    20 2   
    15     5    35 1   
    16     5    36 1   
    17     5    37 1   
    18     5    57 1   
    19     6    12 ar  
    20     6    22 ar  
    21     6    38 1   
    22     7    39 1   
    23     7    40 1   
    24     7    41 1   
    25     8     9 1   
    26     8    18 2   
    27     8    21 1   
    28     9    10 1   
    29     9    15 1   
    30    10    46 1   
    31    10    47 1   
    32    10    58 1   
    33    11    13 1   
    34    11    14 2   
    35    12    13 ar  
    36    12    57 1   
    37    13    25 ar  
    38    14    19 1   
    39    14    21 1   
    40    15    48 1   
    41    15    49 1   
    42    15    59 1   
    43    16    58 1   
    44    17    59 1   
    45    20    21 1   
    46    22    23 1   
    47    22    24 ar  
    48    24    25 ar  
    49    24    50 1   
    50    25    26 1   
    51    26    27 1   
    52    27    51 1   
    53    27    52 1   
    54    27    53 1   
    55    28    54 1   
    56    28    55 1   
    57    28    56 1   
    58    42    58 1   
    59    43    58 1   
    60    44    59 1   
    61    45    59 1   
@<TRIPOS>SUBSTRUCTURE
     1 CW9         1 TEMP              0 ****  ****    0 ROOT
