@<TRIPOS>MOLECULE
CW9
   59    61     1     0     0
SMALL
No Charge or Current Charge


@<TRIPOS>ATOM
      1 C7          19.8240     6.7980     4.5760 cc         1 CW9       0.195300
      2 C           20.0630     3.5190    -0.0510 c3         1 CW9       0.140400
      3 C5          25.7400     8.2880     0.2290 c3         1 CW9       0.140400
      4 C10         23.6890     7.5750     6.3980 cc         1 CW9       0.433600
      5 C14         19.5090    11.0770     6.9500 c3         1 CW9       0.146900
      6 C15         20.2330     9.6900     9.3840 ca         1 CW9      -0.221000
      7 C11         24.8900     7.8470     7.2610 c3         1 CW9      -0.110400
      8 C6          21.9320     6.4420     3.6220 cd         1 CW9       0.595400
      9 N           22.7270     5.9760     2.5470 nh         1 CW9      -0.778300
     10 C3          24.0180     6.6150     2.1590 c3         1 CW9       0.196800
     11 C9          22.3490     7.9000     6.7740 cc         1 CW9      -0.216800
     12 C13         20.7970     9.3280     8.1420 ca         1 CW9       0.194600
     13 C12         21.7550     8.2830     8.0740 ca         1 CW9      -0.064800
     14 C8          21.5920     7.4750     5.7200 cd         1 CW9       0.175500
     15 C2          22.2170     4.9250     1.6230 c3         1 CW9       0.196800
     16 O1          25.2210     8.6770     1.5160 os         1 CW9      -0.444000
     17 O           21.1020     4.4020    -0.5150 os         1 CW9      -0.444000
     18 N1          20.6040     6.3280     3.5250 nc         1 CW9      -0.343000
     19 N2          20.2250     7.3660     5.7160 nd         1 CW9      -0.183000
     20 N3          23.8100     7.0540     5.1780 nd         1 CW9      -0.590100
     21 N4          22.4770     7.0450     4.7740 na         1 CW9      -0.136600
     22 C16         20.6180     9.0260    10.5520 ca         1 CW9       0.063100
     23 Br          19.8490     9.5270    12.2290 br         1 CW9      -0.107100
     24 C17         21.5630     7.9960    10.5000 ca         1 CW9      -0.221000
     25 C18         22.1350     7.6180     9.2670 ca         1 CW9       0.194600
     26 O3          23.0160     6.5550     9.1850 os         1 CW9      -0.326100
     27 C19         23.4490     5.8110    10.3370 c3         1 CW9       0.146900
     28 C20         18.3460     6.6120     4.3710 c3         1 CW9      -0.132400
     29 H1          19.7960     2.8020    -0.8390 h1         1 CW9       0.030867
     30 H2          20.3880     2.9450     0.8260 h1         1 CW9       0.030867
     31 H3          19.1590     4.0830     0.2140 h1         1 CW9       0.030867
     32 H4          26.6710     8.8300     0.0180 h1         1 CW9       0.030867
     33 H5          25.9650     7.2150     0.1960 h1         1 CW9       0.030867
     34 H6          25.0240     8.5210    -0.5690 h1         1 CW9       0.030867
     35 H7          19.4100    11.4670     5.9300 h1         1 CW9       0.042367
     36 H8          18.5250    10.7120     7.2720 h1         1 CW9       0.042367
     37 H9          19.8090    11.9070     7.6030 h1         1 CW9       0.042367
     38 H10         19.5060    10.4920     9.4630 ha         1 CW9       0.134000
     39 H11         25.7010     8.2840     6.6680 hc         1 CW9       0.054367
     40 H12         24.6510     8.5520     8.0650 hc         1 CW9       0.054367
     41 H13         25.2620     6.9210     7.7120 hc         1 CW9       0.054367
     42 H14         23.5490     8.6480     2.7670 h1         1 CW9       0.053950
     43 H15         23.1960     8.3160     1.0660 h1         1 CW9       0.053950
     44 H16         22.1290     6.1830    -0.1400 h1         1 CW9       0.053950
     45 H17         20.5780     6.0380     0.7020 h1         1 CW9       0.053950
     46 H18         24.4020     6.1250     1.2550 h1         1 CW9       0.069950
     47 H19         24.7770     6.4450     2.9320 h1         1 CW9       0.069950
     48 H20         21.5480     4.2510     2.1740 h1         1 CW9       0.069950
     49 H21         23.0520     4.3060     1.2700 h1         1 CW9       0.069950
     50 H22         21.8300     7.4960    11.4260 ha         1 CW9       0.134000
     51 H23         24.1510     5.0240    10.0370 h1         1 CW9       0.042367
     52 H24         23.9590     6.4660    11.0550 h1         1 CW9       0.042367
     53 H25         22.5970     5.3330    10.8360 h1         1 CW9       0.042367
     54 H26         18.0220     7.0700     3.4290 hc         1 CW9       0.059367
     55 H27         18.0910     5.5470     4.3360 hc         1 CW9       0.059367
     56 H28         17.7630     7.0690     5.1800 hc         1 CW9       0.059367
     57 O2          20.4830    10.0200     6.9850 os         1 CW9      -0.326100
     58 C4          23.9230     8.1410     1.8700 c3         1 CW9       0.139600
     59 C1          21.4660     5.4790     0.3800 c3         1 CW9       0.139600
@<TRIPOS>BOND
     1     1    18 1   
     2     1    19 2   
     3     1    28 1   
     4     2    17 1   
     5     2    29 1   
     6     2    30 1   
     7     2    31 1   
     8     3    16 1   
     9     3    32 1   
    10     3    33 1   
    11     3    34 1   
    12     4     7 1   
    13     4    11 1   
    14     4    20 2   
    15     5    35 1   
    16     5    36 1   
    17     5    37 1   
    18     5    57 1   
    19     6    12 ar  
    20     6    22 ar  
    21     6    38 1   
    22     7    39 1   
    23     7    40 1   
    24     7    41 1   
    25     8     9 1   
    26     8    18 2   
    27     8    21 1   
    28     9    10 1   
    29     9    15 1   
    30    10    46 1   
    31    10    47 1   
    32    10    58 1   
    33    11    13 1   
    34    11    14 2   
    35    12    13 ar  
    36    12    57 1   
    37    13    25 ar  
    38    14    19 1   
    39    14    21 1   
    40    15    48 1   
    41    15    49 1   
    42    15    59 1   
    43    16    58 1   
    44    17    59 1   
    45    20    21 1   
    46    22    23 1   
    47    22    24 ar  
    48    24    25 ar  
    49    24    50 1   
    50    25    26 1   
    51    26    27 1   
    52    27    51 1   
    53    27    52 1   
    54    27    53 1   
    55    28    54 1   
    56    28    55 1   
    57    28    56 1   
    58    42    58 1   
    59    43    58 1   
    60    44    59 1   
    61    45    59 1   
@<TRIPOS>SUBSTRUCTURE
     1 CW9         1 TEMP              0 ****  ****    0 ROOT
