@<TRIPOS>MOLECULE
CWA
   35    37     1     0     0
SMALL
No Charge or Current Charge


@<TRIPOS>ATOM
      1 C1           1.6480     3.1700     0.1020 ca         1 CWA      -0.081000
      2 C2           2.9030     2.7700    -0.3850 ca         1 CWA      -0.108000
      3 C3           3.1910     1.4050    -0.5570 ca         1 CWA      -0.049000
      4 C15         -0.7320    -0.7620    -1.8110 cc         1 CWA       0.432400
      5 C17         -2.8490    -0.3460    -1.7690 cd         1 CWA       0.300900
      6 C18         -2.4010    -0.0890    -0.4970 cc         1 CWA      -0.320300
      7 C19         -3.1900     0.3810     0.6990 c3         1 CWA       0.268600
      8 C10         -0.0810    -0.2170     0.5980 c6         1 CWA       0.101600
      9 C4           0.6810     2.2040     0.4210 ca         1 CWA      -0.092000
     10 C5           0.9670     0.8350     0.2570 ca         1 CWA      -0.082300
     11 C6           2.2270     0.4240    -0.2350 ca         1 CWA      -0.177600
     12 C7           2.5390    -1.0450    -0.4500 c          1 CWA       0.675700
     13 C9           0.6090    -1.5590     1.0000 c6         1 CWA       0.200000
     14 F20         -2.9860     1.6990     0.9190 f          1 CWA      -0.117000
     15 F21         -4.5180     0.2150     0.5070 f          1 CWA      -0.117000
     16 N14         -1.0430    -0.3580    -0.5270 na         1 CWA      -0.151500
     17 N16         -1.8120    -0.7640    -2.5790 nd         1 CWA      -0.674000
     18 O11          3.4800    -1.4180    -1.1350 o          1 CWA      -0.484000
     19 O8           1.6190    -1.9410     0.0440 os         1 CWA      -0.442100
     20 H1           1.4250     4.2270     0.2310 ha         1 CWA       0.124000
     21 H2           3.6520     3.5190    -0.6350 ha         1 CWA       0.125000
     22 H3           4.1670     1.1130    -0.9420 ha         1 CWA       0.142000
     23 H4          -1.2030    -2.5390     1.7850 hc         1 CWA       0.057033
     24 H5          -0.8250    -2.9940     0.1180 hc         1 CWA       0.057033
     25 H6           0.1200    -3.6640     1.4470 hc         1 CWA       0.057033
     26 H7           0.6060    -1.2470     3.1830 hc         1 CWA       0.057033
     27 H8           1.8710    -2.3520     2.6300 hc         1 CWA       0.057033
     28 H9           2.0500    -0.6100     2.3940 hc         1 CWA       0.057033
     29 H10          0.2730    -1.0290    -2.1160 h5         1 CWA       0.067100
     30 H11         -3.8610    -0.2540    -2.1470 h4         1 CWA       0.051100
     31 H12         -2.9000    -0.1740     1.5980 h2         1 CWA       0.057700
     32 H13         -0.6370     0.1390     1.4760 h1         1 CWA       0.086700
     33 H14         -0.2910     2.5190     0.7940 ha         1 CWA       0.131000
     34 C12         -0.3820    -2.7560     1.0920 c3         1 CWA      -0.106100
     35 C13          1.3270    -1.4330     2.3780 c3         1 CWA      -0.106100
@<TRIPOS>BOND
     1     1     2 ar  
     2     1     9 ar  
     3     1    20 1   
     4     2     3 ar  
     5     2    21 1   
     6     3    11 ar  
     7     3    22 1   
     8     4    16 1   
     9     4    17 2   
    10     4    29 1   
    11     5     6 2   
    12     5    17 1   
    13     5    30 1   
    14     6     7 1   
    15     6    16 1   
    16     7    14 1   
    17     7    15 1   
    18     7    31 1   
    19     8    10 1   
    20     8    13 1   
    21     8    16 1   
    22     8    32 1   
    23     9    10 ar  
    24     9    33 1   
    25    10    11 ar  
    26    11    12 1   
    27    12    18 2   
    28    12    19 1   
    29    13    19 1   
    30    13    34 1   
    31    13    35 1   
    32    23    34 1   
    33    24    34 1   
    34    25    34 1   
    35    26    35 1   
    36    27    35 1   
    37    28    35 1   
@<TRIPOS>SUBSTRUCTURE
     1 CWA         1 TEMP              0 ****  ****    0 ROOT
