@<TRIPOS>MOLECULE
CWA
   35    37     1     0     0
SMALL
abcg2


@<TRIPOS>ATOM
      1 C1           1.7670     3.1310     0.0170 ca         1 CWA      -0.081000
      2 C2           3.0030     2.6790    -0.4320 ca         1 CWA      -0.108000
      3 C3           3.2390     1.3210    -0.5570 ca         1 CWA      -0.049000
      4 C15         -0.7190    -0.4740    -1.8260 cc         1 CWA       0.432400
      5 C17         -2.8410    -0.4560    -1.7090 cd         1 CWA       0.300900
      6 C18         -2.3890    -0.2380    -0.4390 cc         1 CWA      -0.320300
      7 C19         -3.1380     0.0260     0.8100 c3         1 CWA       0.268600
      8 C10         -0.0680    -0.1340     0.5750 c6         1 CWA       0.101600
      9 C4           0.7690     2.2270     0.3440 ca         1 CWA      -0.092000
     10 C5           1.0030     0.8640     0.2300 ca         1 CWA      -0.082300
     11 C6           2.2380     0.4100    -0.2250 ca         1 CWA      -0.177600
     12 C7           2.4850    -1.0380    -0.4030 c          1 CWA       0.675700
     13 C9           0.5540    -1.4740     0.9980 c6         1 CWA       0.200000
     14 F20         -2.9340     1.3190     1.2160 f          1 CWA      -0.117000
     15 F21         -4.4620    -0.1070     0.5600 f          1 CWA      -0.117000
     16 N14         -1.0170    -0.2540    -0.5250 na         1 CWA      -0.151500
     17 N16         -1.7910    -0.6020    -2.5620 nd         1 CWA      -0.674000
     18 O11          3.4510    -1.4840    -0.9670 o          1 CWA      -0.484000
     19 O8           1.5530    -1.8800     0.0390 os         1 CWA      -0.442100
     20 H1           1.5820     4.1920     0.1150 ha         1 CWA       0.124000
     21 H2           3.7810     3.3870    -0.6830 ha         1 CWA       0.125000
     22 H3           4.1970     0.9660    -0.9110 ha         1 CWA       0.142000
     23 H4          -1.2640    -2.3720     1.7200 hc         1 CWA       0.057033
     24 H5          -0.8990    -2.7830     0.0360 hc         1 CWA       0.057033
     25 H6           0.0090    -3.5230     1.3550 hc         1 CWA       0.057033
     26 H7           0.4320    -1.1180     3.1170 hc         1 CWA       0.057033
     27 H8           1.6990    -2.2500     2.6530 hc         1 CWA       0.057033
     28 H9           1.9290    -0.5150     2.4160 hc         1 CWA       0.057033
     29 H10          0.2930    -0.5150    -2.1960 h5         1 CWA       0.067100
     30 H11         -3.8640    -0.5130    -2.0480 h4         1 CWA       0.051100
     31 H12         -2.8800    -0.6230     1.6500 h2         1 CWA       0.057700
     32 H13         -0.6170     0.2450     1.4360 h1         1 CWA       0.086700
     33 H14         -0.1930     2.5800     0.6960 ha         1 CWA       0.131000
     34 C12         -0.4620    -2.6000     1.0170 c3         1 CWA      -0.106100
     35 C13          1.2000    -1.3230     2.3710 c3         1 CWA      -0.106100
@<TRIPOS>BOND
     1     1     2 ar  
     2     1     9 ar  
     3     1    20 1   
     4     2     3 ar  
     5     2    21 1   
     6     3    11 ar  
     7     3    22 1   
     8     4    16 1   
     9     4    17 2   
    10     4    29 1   
    11     5     6 2   
    12     5    17 1   
    13     5    30 1   
    14     6     7 1   
    15     6    16 1   
    16     7    14 1   
    17     7    15 1   
    18     7    31 1   
    19     8    10 1   
    20     8    13 1   
    21     8    16 1   
    22     8    32 1   
    23     9    10 ar  
    24     9    33 1   
    25    10    11 ar  
    26    11    12 1   
    27    12    18 2   
    28    12    19 1   
    29    13    19 1   
    30    13    34 1   
    31    13    35 1   
    32    23    34 1   
    33    24    34 1   
    34    25    34 1   
    35    26    35 1   
    36    27    35 1   
    37    28    35 1   
@<TRIPOS>SUBSTRUCTURE
     1 CWA         1 TEMP              0 ****  ****    0 ROOT
