@<TRIPOS>MOLECULE
CWB
   47    50     1     0     0
SMALL
abcg2


@<TRIPOS>ATOM
      1 O13          0.6020    -2.4610    -0.1670 o          1 CWB      -0.610100
      2 C12          0.4100    -1.3140     0.2220 c          1 CWB       0.550800
      3 C14          1.5010    -0.3180     0.2060 cc         1 CWB       0.297900
      4 C23          2.8610    -0.5090    -0.1610 ca         1 CWB      -0.181900
      5 C22          3.6640    -1.5750    -0.5920 ca         1 CWB      -0.021000
      6 C21          4.9920    -1.3220    -0.8490 ca         1 CWB      -0.149000
      7 C20          5.5420    -0.0330    -0.6890 ca         1 CWB      -0.073000
      8 C19          4.7780     1.0310    -0.2680 ca         1 CWB      -0.131000
      9 C18          3.4300     0.7670    -0.0070 ca         1 CWB      -0.055200
     10 N16          2.4320     1.5880     0.4160 na         1 CWB       0.090600
     11 C17          2.5290     2.9990     0.6950 c3         1 CWB       0.077900
     12 N15          1.2880     0.9370     0.5390 nd         1 CWB      -0.522100
     13 N11         -0.7620    -0.8590     0.6840 ns         1 CWB      -0.492900
     14 C09         -1.9920    -1.6330     0.6740 c6         1 CWB       0.126700
     15 C10         -2.6220    -1.7320    -0.7170 c6         1 CWB      -0.084900
     16 C03         -3.3480    -0.4580    -1.1490 c6         1 CWB       0.187000
     17 C08         -3.0100    -1.0410     1.6460 c6         1 CWB      -0.084900
     18 C07         -3.7480     0.1930     1.1160 c6         1 CWB       0.187000
     19 N02         -4.3650    -0.1470    -0.1550 n3         1 CWB      -0.723600
     20 C01         -5.3590     0.8020    -0.5970 c3         1 CWB       0.164100
     21 C06         -2.8780     1.4710     1.0390 c6         1 CWB      -0.103400
     22 C05         -2.3690     1.8350    -0.3720 c6         1 CWB      -0.070400
     23 C04         -2.3880     0.7240    -1.4420 c6         1 CWB      -0.103400
     24 H11         -0.7920     0.1070     0.9670 hn         1 CWB       0.332500
     25 H22          3.2530    -2.5660    -0.7180 ha         1 CWB       0.142000
     26 H21          5.6350    -2.1270    -1.1820 ha         1 CWB       0.116000
     27 H20          6.5920     0.1210    -0.9030 ha         1 CWB       0.113000
     28 H19          5.2020     2.0200    -0.1460 ha         1 CWB       0.119000
     29 H171         2.8250     3.5470    -0.1990 h1         1 CWB       0.056700
     30 H172         1.5560     3.3510     1.0230 h1         1 CWB       0.056700
     31 H173         3.2590     3.1840     1.4820 h1         1 CWB       0.056700
     32 H09         -1.7390    -2.6400     1.0120 h1         1 CWB       0.069700
     33 H101        -1.8670    -2.0050    -1.4580 hc         1 CWB       0.057200
     34 H102        -3.3500    -2.5480    -0.6930 hc         1 CWB       0.057200
     35 H081        -3.7590    -1.8130     1.8360 hc         1 CWB       0.057200
     36 H082        -2.5380    -0.8150     2.6050 hc         1 CWB       0.057200
     37 H03         -3.8740    -0.7030    -2.0750 h1         1 CWB       0.054200
     38 H041        -1.3800     0.3390    -1.6030 hc         1 CWB       0.041200
     39 H042        -2.6740     1.1800    -2.3910 hc         1 CWB       0.041200
     40 H07         -4.5560     0.3850     1.8270 h1         1 CWB       0.054200
     41 H061        -3.4620     2.3130     1.4130 hc         1 CWB       0.041200
     42 H062        -2.0470     1.3930     1.7470 hc         1 CWB       0.041200
     43 H011        -5.8250     0.4430    -1.5170 h1         1 CWB       0.029033
     44 H012        -6.1440     0.8880     0.1570 h1         1 CWB       0.029033
     45 H013        -4.9870     1.8170    -0.7940 h1         1 CWB       0.029033
     46 H051        -2.9730     2.6660    -0.7390 hc         1 CWB       0.037200
     47 H052        -1.3560     2.2340    -0.2950 hc         1 CWB       0.037200
@<TRIPOS>BOND
     1     1     2 2   
     2     2     3 1   
     3     2    13 1   
     4     3     4 1   
     5     3    12 2   
     6     4     5 ar  
     7     4     9 ar  
     8     5     6 ar  
     9     5    25 1   
    10     6     7 ar  
    11     6    26 1   
    12     7     8 ar  
    13     7    27 1   
    14     8     9 ar  
    15     8    28 1   
    16     9    10 1   
    17    10    11 1   
    18    10    12 1   
    19    11    29 1   
    20    11    30 1   
    21    11    31 1   
    22    13    14 1   
    23    13    24 1   
    24    14    15 1   
    25    14    17 1   
    26    14    32 1   
    27    15    16 1   
    28    15    33 1   
    29    15    34 1   
    30    16    19 1   
    31    16    23 1   
    32    16    37 1   
    33    17    18 1   
    34    17    35 1   
    35    17    36 1   
    36    18    19 1   
    37    18    21 1   
    38    18    40 1   
    39    19    20 1   
    40    20    43 1   
    41    20    44 1   
    42    20    45 1   
    43    21    22 1   
    44    21    41 1   
    45    21    42 1   
    46    22    23 1   
    47    22    46 1   
    48    22    47 1   
    49    23    38 1   
    50    23    39 1   
@<TRIPOS>SUBSTRUCTURE
     1 CWB         1 TEMP              0 ****  ****    0 ROOT
