@<TRIPOS>MOLECULE
CWB
   47    50     1     0     0
SMALL
No Charge or Current Charge


@<TRIPOS>ATOM
      1 O13          0.6770    -2.4910    -0.0730 o          1 CWB      -0.610100
      2 C12          0.4860    -1.3190     0.2380 c          1 CWB       0.550800
      3 C14          1.5270    -0.2280     0.2480 cc         1 CWB       0.297900
      4 C23          2.9220    -0.4190    -0.1190 ca         1 CWB      -0.181900
      5 C22          3.6510    -1.5430    -0.5410 ca         1 CWB      -0.021000
      6 C21          5.0240    -1.3640    -0.8210 ca         1 CWB      -0.149000
      7 C20          5.6300    -0.0920    -0.6770 ca         1 CWB      -0.073000
      8 C19          4.8670     1.0160    -0.2510 ca         1 CWB      -0.131000
      9 C18          3.5080     0.8020     0.0180 ca         1 CWB      -0.055200
     10 N16          2.5220     1.6670     0.4420 na         1 CWB       0.090600
     11 C17          2.7440     3.0960     0.7080 c3         1 CWB       0.077900
     12 N15          1.2830     1.0570     0.5950 nd         1 CWB      -0.522100
     13 N11         -0.7630    -0.8730     0.6230 ns         1 CWB      -0.492900
     14 C09         -2.0020    -1.6590     0.6410 c6         1 CWB       0.126700
     15 C10         -2.6530    -1.7560    -0.7660 c6         1 CWB      -0.084900
     16 C03         -3.4310    -0.4750    -1.1920 c6         1 CWB       0.187000
     17 C08         -3.0310    -1.0870     1.6520 c6         1 CWB      -0.084900
     18 C07         -3.8060     0.1640     1.1370 c6         1 CWB       0.187000
     19 N02         -4.4570    -0.1710    -0.1580 n3         1 CWB      -0.723600
     20 C01         -5.5210     0.7700    -0.5870 c3         1 CWB       0.164100
     21 C06         -2.8960     1.4330     1.0420 c6         1 CWB      -0.103400
     22 C05         -2.4700     1.8610    -0.3960 c6         1 CWB      -0.070400
     23 C04         -2.4800     0.7350    -1.4740 c6         1 CWB      -0.103400
     24 H11         -0.8200     0.1160     0.8390 hn         1 CWB       0.332500
     25 H22          3.1860    -2.5200    -0.6530 ha         1 CWB       0.142000
     26 H21          5.6210    -2.2110    -1.1510 ha         1 CWB       0.116000
     27 H20          6.6890     0.0320    -0.8960 ha         1 CWB       0.113000
     28 H19          5.3220     1.9980    -0.1360 ha         1 CWB       0.119000
     29 H171         3.1040     3.5860    -0.2040 h1         1 CWB       0.056700
     30 H172         1.8050     3.5670     1.0240 h1         1 CWB       0.056700
     31 H173         3.4910     3.2090     1.5020 h1         1 CWB       0.056700
     32 H09         -1.7330    -2.6750     0.9680 h1         1 CWB       0.069700
     33 H101        -1.8970    -2.0120    -1.5200 hc         1 CWB       0.057200
     34 H102        -3.3590    -2.5970    -0.7620 hc         1 CWB       0.057200
     35 H081        -3.7670    -1.8720     1.8730 hc         1 CWB       0.057200
     36 H082        -2.5410    -0.8670     2.6100 hc         1 CWB       0.057200
     37 H03         -3.9340    -0.7230    -2.1390 h1         1 CWB       0.054200
     38 H041        -1.4560     0.3810    -1.6500 hc         1 CWB       0.041200
     39 H042        -2.7760     1.1890    -2.4300 hc         1 CWB       0.041200
     40 H07         -4.5810     0.3740     1.8890 h1         1 CWB       0.054200
     41 H061        -3.4370     2.2760     1.4940 hc         1 CWB       0.041200
     42 H062        -2.0080     1.3140     1.6760 hc         1 CWB       0.041200
     43 H011        -6.0150     0.3990    -1.4950 h1         1 CWB       0.029033
     44 H012        -6.2860     0.8650     0.1950 h1         1 CWB       0.029033
     45 H013        -5.1320     1.7720    -0.8010 h1         1 CWB       0.029033
     46 H051        -3.1410     2.6640    -0.7300 hc         1 CWB       0.037200
     47 H052        -1.4770     2.3290    -0.3620 hc         1 CWB       0.037200
@<TRIPOS>BOND
     1     1     2 2   
     2     2     3 1   
     3     2    13 1   
     4     3     4 1   
     5     3    12 2   
     6     4     5 ar  
     7     4     9 ar  
     8     5     6 ar  
     9     5    25 1   
    10     6     7 ar  
    11     6    26 1   
    12     7     8 ar  
    13     7    27 1   
    14     8     9 ar  
    15     8    28 1   
    16     9    10 1   
    17    10    11 1   
    18    10    12 1   
    19    11    29 1   
    20    11    30 1   
    21    11    31 1   
    22    13    14 1   
    23    13    24 1   
    24    14    15 1   
    25    14    17 1   
    26    14    32 1   
    27    15    16 1   
    28    15    33 1   
    29    15    34 1   
    30    16    19 1   
    31    16    23 1   
    32    16    37 1   
    33    17    18 1   
    34    17    35 1   
    35    17    36 1   
    36    18    19 1   
    37    18    21 1   
    38    18    40 1   
    39    19    20 1   
    40    20    43 1   
    41    20    44 1   
    42    20    45 1   
    43    21    22 1   
    44    21    41 1   
    45    21    42 1   
    46    22    23 1   
    47    22    46 1   
    48    22    47 1   
    49    23    38 1   
    50    23    39 1   
@<TRIPOS>SUBSTRUCTURE
     1 CWB         1 TEMP              0 ****  ****    0 ROOT
