@<TRIPOS>MOLECULE
CWC
   46    48     1     0     0
SMALL
No Charge or Current Charge


@<TRIPOS>ATOM
      1 C1           6.7580    -2.3830     0.5700 c3         1 CWC       0.149100
      2 N2           6.8750    -0.9200     0.7810 n3         1 CWC      -0.712600
      3 C3           8.2890    -0.4930     0.8890 c3         1 CWC       0.149100
      4 C4           6.1240    -0.1060    -0.2070 c3         1 CWC       0.165800
      5 C5           4.5920    -0.3220    -0.1950 c3         1 CWC      -0.068400
      6 C6           3.8370     0.6650    -1.1200 c3         1 CWC      -0.160400
      7 C7           2.3210     0.4230    -1.0890 c          1 CWC       0.608100
      8 O8           1.8180    -0.5410    -1.6540 o          1 CWC      -0.575100
      9 N9           1.5990     1.3970    -0.4110 ns         1 CWC      -0.146000
     10 C10          0.2060     1.5480    -0.1480 ca         1 CWC      -0.071000
     11 C11         -0.7660     0.5810    -0.4860 ca         1 CWC      -0.095000
     12 C12         -2.1270     0.8200    -0.1740 cp         1 CWC      -0.048000
     13 C13         -2.4420     2.0470     0.4640 ca         1 CWC       0.316900
     14 N14         -1.5220     2.9830     0.7960 nb         1 CWC      -0.646000
     15 C15         -0.2290     2.7260     0.4960 ca         1 CWC       0.280900
     16 C16         -3.1870    -0.1720    -0.5250 cp         1 CWC       0.006000
     17 C17         -3.1860    -0.8280    -1.7860 ca         1 CWC      -0.120000
     18 C18         -4.1910    -1.7590    -2.1310 ca         1 CWC      -0.094000
     19 C19         -5.2210    -2.0590    -1.2190 ca         1 CWC      -0.121000
     20 C20         -5.2140    -1.4150     0.0240 ca         1 CWC      -0.052200
     21 C21         -4.2390    -0.5100     0.3630 ca         1 CWC      -0.083800
     22 C22         -4.5390    -0.0970     1.7070 cc         1 CWC      -0.242200
     23 C23         -5.6900    -0.7600     2.1100 cd         1 CWC      -0.162100
     24 N24         -6.1270    -1.5890     1.0530 na         1 CWC      -0.223700
     25 H11C         7.3400    -2.9300     1.3240 h1         1 CWC       0.031033
     26 H12C         5.7160    -2.7170     0.6570 h1         1 CWC       0.031033
     27 H13C         7.1320    -2.6680    -0.4220 h1         1 CWC       0.031033
     28 H31C         8.8240    -0.6660    -0.0540 h1         1 CWC       0.031033
     29 H32C         8.3550     0.5760     1.1320 h1         1 CWC       0.031033
     30 H33C         8.8040    -1.0500     1.6840 h1         1 CWC       0.031033
     31 H41C         6.3070     0.9580    -0.0050 h1         1 CWC       0.026200
     32 H42C         6.4990    -0.3070    -1.2200 h1         1 CWC       0.026200
     33 H51C         4.3620    -1.3470    -0.5090 hc         1 CWC       0.065200
     34 H52C         4.2250    -0.2080     0.8330 hc         1 CWC       0.065200
     35 H61C         4.0600     1.6880    -0.7940 hc         1 CWC       0.058200
     36 H62C         4.1930     0.5180    -2.1470 hc         1 CWC       0.058200
     37 H9           2.1710     2.1380    -0.0250 hn         1 CWC       0.150000
     38 H11         -0.4960    -0.3540    -0.9670 ha         1 CWC       0.155000
     39 H15          0.4870     3.4970     0.7780 h4         1 CWC       0.011100
     40 H13         -3.4760     2.2930     0.7020 h4         1 CWC       0.029100
     41 H17         -2.4050    -0.6040    -2.5080 ha         1 CWC       0.118000
     42 H18         -4.1700    -2.2440    -3.1040 ha         1 CWC       0.113000
     43 H19         -5.9990    -2.7750    -1.4750 ha         1 CWC       0.113000
     44 H24         -6.9400    -2.1990     1.0490 hn         1 CWC       0.349000
     45 H22         -3.9700     0.5910     2.3280 ha         1 CWC       0.209000
     46 H23         -6.2200    -0.7100     3.0600 h4         1 CWC       0.212000
@<TRIPOS>BOND
     1     1     2 1   
     2     1    25 1   
     3     1    26 1   
     4     1    27 1   
     5     2     3 1   
     6     2     4 1   
     7     3    28 1   
     8     3    29 1   
     9     3    30 1   
    10     4     5 1   
    11     4    31 1   
    12     4    32 1   
    13     5     6 1   
    14     5    33 1   
    15     5    34 1   
    16     6     7 1   
    17     6    35 1   
    18     6    36 1   
    19     7     8 2   
    20     7     9 1   
    21     9    10 1   
    22     9    37 1   
    23    10    11 ar  
    24    10    15 ar  
    25    11    12 ar  
    26    11    38 1   
    27    12    13 ar  
    28    12    16 1   
    29    13    14 ar  
    30    13    40 1   
    31    14    15 ar  
    32    15    39 1   
    33    16    17 ar  
    34    16    21 ar  
    35    17    18 ar  
    36    17    41 1   
    37    18    19 ar  
    38    18    42 1   
    39    19    20 ar  
    40    19    43 1   
    41    20    21 ar  
    42    20    24 1   
    43    21    22 1   
    44    22    23 2   
    45    22    45 1   
    46    23    24 1   
    47    23    46 1   
    48    24    44 1   
@<TRIPOS>SUBSTRUCTURE
     1 CWC         1 TEMP              0 ****  ****    0 ROOT
