@<TRIPOS>MOLECULE
CWC
   46    48     1     0     0
SMALL
bcc


@<TRIPOS>ATOM
      1 C1           6.9740    -2.2960    -0.5680 c3         1 CWC       0.149100
      2 N2           6.9590    -1.2510     0.4330 n3         1 CWC      -0.712600
      3 C3           8.3040    -0.7920     0.7070 c3         1 CWC       0.149100
      4 C4           6.0940    -0.1440     0.0700 c3         1 CWC       0.165800
      5 C5           4.6140    -0.5010     0.0900 c3         1 CWC      -0.068400
      6 C6           3.7610     0.7250    -0.2050 c3         1 CWC      -0.160400
      7 C7           2.2800     0.4250    -0.2490 c          1 CWC       0.675100
      8 O8           1.8340    -0.6770    -0.5100 o          1 CWC      -0.575100
      9 N9           1.4960     1.5100     0.0000 ns         1 CWC      -0.472100
     10 C10          0.1100     1.6220    -0.0600 ca         1 CWC      -0.043700
     11 C11         -0.7770     0.5620    -0.2200 ca         1 CWC      -0.113000
     12 C12         -2.1460     0.8210    -0.2570 cp         1 CWC      -0.113300
     13 C13         -2.5670     2.1430    -0.1290 ca         1 CWC       0.382200
     14 N14         -1.7260     3.1550     0.0340 nb         1 CWC      -0.646000
     15 C15         -0.4310     2.9050     0.0690 ca         1 CWC       0.346200
     16 C16         -3.1100    -0.2760    -0.4530 cp         1 CWC       0.006000
     17 C17         -2.8680    -1.2630    -1.3970 ca         1 CWC      -0.138000
     18 C18         -3.7690    -2.3120    -1.6200 ca         1 CWC      -0.112000
     19 C19         -4.9440    -2.4120    -0.9020 ca         1 CWC      -0.139000
     20 C20         -5.1900    -1.4310     0.0560 ca         1 CWC      -0.052200
     21 C21         -4.2970    -0.3610     0.3010 ca         1 CWC      -0.083800
     22 C22         -4.8660     0.4080     1.3640 cc         1 CWC      -0.192200
     23 C23         -6.0430    -0.1970     1.7020 cd         1 CWC      -0.112100
     24 N24         -6.2380    -1.2950     0.9180 na         1 CWC      -0.173400
     25 H11C         7.6220    -3.1110    -0.2430 h1         1 CWC       0.031033
     26 H12C         5.9790    -2.7150    -0.7160 h1         1 CWC       0.031033
     27 H13C         7.3410    -1.9480    -1.5480 h1         1 CWC       0.031033
     28 H31C         8.8000    -0.3410    -0.1680 h1         1 CWC       0.031033
     29 H32C         8.2950    -0.0480     1.5040 h1         1 CWC       0.031033
     30 H33C         8.9230    -1.6270     1.0400 h1         1 CWC       0.031033
     31 H41C         6.2650     0.6600     0.7920 h1         1 CWC       0.026200
     32 H42C         6.3570     0.2690    -0.9210 h1         1 CWC       0.026200
     33 H51C         4.3930    -1.2770    -0.6440 hc         1 CWC       0.065200
     34 H52C         4.3580    -0.9070     1.0720 hc         1 CWC       0.065200
     35 H61C         3.9630     1.5130     0.5250 hc         1 CWC       0.058200
     36 H62C         4.0340     1.1420    -1.1810 hc         1 CWC       0.058200
     37 H9           1.9830     2.3720     0.1990 hn         1 CWC       0.316500
     38 H11         -0.4240    -0.4530    -0.2990 ha         1 CWC       0.173000
     39 H15          0.2290     3.7570     0.2070 h4         1 CWC       0.011100
     40 H13         -3.6210     2.3910    -0.1780 h4         1 CWC       0.029100
     41 H17         -1.9690    -1.2120    -1.9990 ha         1 CWC       0.136000
     42 H18         -3.5410    -3.0530    -2.3750 ha         1 CWC       0.131000
     43 H19         -5.6450    -3.2190    -1.0730 ha         1 CWC       0.131000
     44 H24         -7.0310    -1.9120     0.9750 hn         1 CWC       0.298700
     45 H22         -4.4620     1.2920     1.8290 ha         1 CWC       0.159000
     46 H23         -6.7660     0.0760     2.4520 h4         1 CWC       0.162000
@<TRIPOS>BOND
     1     1     2 1   
     2     1    25 1   
     3     1    26 1   
     4     1    27 1   
     5     2     3 1   
     6     2     4 1   
     7     3    28 1   
     8     3    29 1   
     9     3    30 1   
    10     4     5 1   
    11     4    31 1   
    12     4    32 1   
    13     5     6 1   
    14     5    33 1   
    15     5    34 1   
    16     6     7 1   
    17     6    35 1   
    18     6    36 1   
    19     7     8 2   
    20     7     9 1   
    21     9    10 1   
    22     9    37 1   
    23    10    11 ar  
    24    10    15 ar  
    25    11    12 ar  
    26    11    38 1   
    27    12    13 ar  
    28    12    16 1   
    29    13    14 ar  
    30    13    40 1   
    31    14    15 ar  
    32    15    39 1   
    33    16    17 ar  
    34    16    21 ar  
    35    17    18 ar  
    36    17    41 1   
    37    18    19 ar  
    38    18    42 1   
    39    19    20 ar  
    40    19    43 1   
    41    20    21 ar  
    42    20    24 1   
    43    21    22 1   
    44    22    23 2   
    45    22    45 1   
    46    23    24 1   
    47    23    46 1   
    48    24    44 1   
@<TRIPOS>SUBSTRUCTURE
     1 CWC         1 TEMP              0 ****  ****    0 ROOT
