@<TRIPOS>MOLECULE
CWD
   22    22     1     0     0
SMALL
abcg2


@<TRIPOS>ATOM
      1 N1          -0.0330    -0.2350    -0.5560 n          1 CWD      -0.292000
      2 C2           0.3860    -1.5470    -0.5650 c          1 CWD       0.609000
      3 O2          -0.3390    -2.4820    -0.8300 o          1 CWD      -0.548000
      4 N3           1.7120    -1.7240    -0.2510 ns         1 CWD      -0.474500
      5 C4           2.6580    -0.7690     0.0660 c          1 CWD       0.602200
      6 O4           3.8040    -1.0670     0.3270 o          1 CWD      -0.539000
      7 C5           2.1190     0.5750     0.0420 cc         1 CWD      -0.152200
      8 CL5          3.1830     1.8710     0.4000 cl         1 CWD      -0.158000
      9 C6           0.8250     0.7780    -0.2590 cd         1 CWD       0.037600
     10 C7          -1.4370     0.0920    -0.8160 c3         1 CWD       0.057000
     11 C8          -2.2270     0.3630     0.4760 c3         1 CWD       0.007500
     12 N8          -2.1710    -0.6910     1.4630 n8         1 CWD      -0.982200
     13 C9          -3.6810     0.6860     0.0490 c          1 CWD       0.728000
     14 O91         -4.5690    -0.1140     0.3890 o          1 CWD      -0.713500
     15 O92         -3.8170     1.7190    -0.6360 o          1 CWD      -0.713500
     16 HN3          2.0290    -2.6860    -0.2490 hn         1 CWD       0.333500
     17 H6           0.4020     1.7730    -0.2860 h4         1 CWD       0.229000
     18 H7          -1.4590     0.9660    -1.4650 h1         1 CWD       0.079700
     19 H7A         -1.8730    -0.7400    -1.3650 h1         1 CWD       0.079700
     20 H8          -1.8090     1.2690     0.9340 h1         1 CWD       0.043700
     21 HN8         -2.5720    -1.5420     1.0930 hn         1 CWD       0.384000
     22 HN8A        -1.2150    -0.8950     1.7270 hn         1 CWD       0.384000
@<TRIPOS>BOND
     1     1     2 1   
     2     1     9 1   
     3     1    10 1   
     4     2     3 2   
     5     2     4 1   
     6     4     5 1   
     7     4    16 1   
     8     5     6 2   
     9     5     7 1   
    10     7     8 1   
    11     7     9 2   
    12     9    17 1   
    13    10    11 1   
    14    10    18 1   
    15    10    19 1   
    16    11    12 1   
    17    11    13 1   
    18    11    20 1   
    19    12    21 1   
    20    12    22 1   
    21    13    14 1   
    22    13    15 1   
@<TRIPOS>SUBSTRUCTURE
     1 CWD         1 TEMP              0 ****  ****    0 ROOT
