@<TRIPOS>MOLECULE
CWD
   22    22     1     0     0
SMALL
No Charge or Current Charge


@<TRIPOS>ATOM
      1 N1          -0.0210    -0.2690    -0.5020 n          1 CWD      -0.292000
      2 C2           0.4620    -1.5990    -0.4820 c          1 CWD       0.609000
      3 O2          -0.2400    -2.5760    -0.6810 o          1 CWD      -0.548000
      4 N3           1.7890    -1.7490    -0.2200 ns         1 CWD      -0.474500
      5 C4           2.7170    -0.7850     0.0220 c          1 CWD       0.602200
      6 O4           3.8830    -1.0710     0.2440 o          1 CWD      -0.539000
      7 C5           2.1720     0.5900    -0.0130 cc         1 CWD      -0.152200
      8 Cl5          3.2750     1.9080     0.2820 cl         1 CWD      -0.158000
      9 C6           0.8370     0.8070    -0.2720 cd         1 CWD       0.037600
     10 C7          -1.4590    -0.0140    -0.7920 c3         1 CWD       0.057000
     11 C8          -2.2950     0.3970     0.4510 c3         1 CWD       0.007500
     12 N8          -2.2080    -0.6470     1.5430 n8         1 CWD      -0.982200
     13 C9          -3.7480     0.8170    -0.0070 c          1 CWD       0.728000
     14 O91         -4.4640    -0.0310    -0.5270 o          1 CWD      -0.713500
     15 O92         -4.1180     1.9630     0.2140 o          1 CWD      -0.713500
     16 HN3          2.1270    -2.6980    -0.2060 hn         1 CWD       0.333500
     17 H6           0.3690     1.7870    -0.3140 h4         1 CWD       0.229000
     18 H7          -1.5200     0.7930    -1.5350 h1         1 CWD       0.079700
     19 H7A         -1.9160    -0.8960    -1.2590 h1         1 CWD       0.079700
     20 H8          -1.8320     1.3060     0.8580 h1         1 CWD       0.043700
     21 HN8         -2.6660    -1.5080     1.2180 hn         1 CWD       0.384000
     22 HN8A        -1.2280    -0.9250     1.6670 hn         1 CWD       0.384000
@<TRIPOS>BOND
     1     1     2 1   
     2     1     9 1   
     3     1    10 1   
     4     2     3 2   
     5     2     4 1   
     6     4     5 1   
     7     4    16 1   
     8     5     6 2   
     9     5     7 1   
    10     7     8 1   
    11     7     9 2   
    12     9    17 1   
    13    10    11 1   
    14    10    18 1   
    15    10    19 1   
    16    11    12 1   
    17    11    13 1   
    18    11    20 1   
    19    12    21 1   
    20    12    22 1   
    21    13    14 1   
    22    13    15 1   
@<TRIPOS>SUBSTRUCTURE
     1 CWD         1 TEMP              0 ****  ****    0 ROOT
