@<TRIPOS>MOLECULE
CWE
   32    34     1     0     0
SMALL
bcc


@<TRIPOS>ATOM
      1 C1          -2.1410     1.7800    -0.3180 ca         1 CWE      -0.333000
      2 C2          -3.5360     1.7140    -0.3170 ca         1 CWE       0.250100
      3 C3          -4.2110     0.5040    -0.1680 ca         1 CWE      -0.277000
      4 C4          -3.4810    -0.6590    -0.0020 ca         1 CWE       0.289100
      5 C5          -2.0630    -0.6280     0.0150 ca         1 CWE      -0.423600
      6 C6          -1.4190     0.6130    -0.1570 ca         1 CWE       0.272100
      7 C7          -1.2960    -1.8160     0.3040 c          1 CWE       0.614700
      8 C8           0.1870    -1.6190     0.4340 c6         1 CWE      -0.206400
      9 C9           0.6600    -0.4770    -0.4500 c6         1 CWE       0.216400
     10 O1          -0.0840     0.7140    -0.1650 os         1 CWE      -0.314900
     11 O2          -1.8190    -2.9170     0.4770 o          1 CWE      -0.577100
     12 C10          2.1140    -0.1620    -0.2700 ca         1 CWE      -0.138300
     13 C11          3.0150    -0.3790    -1.3060 ca         1 CWE      -0.062500
     14 C12          4.3680    -0.1250    -1.1480 ca         1 CWE      -0.198000
     15 C13          4.8420     0.3670     0.0650 ca         1 CWE       0.154100
     16 C14          3.9480     0.5950     1.1100 ca         1 CWE      -0.198000
     17 C15          2.6000     0.3280     0.9390 ca         1 CWE      -0.062500
     18 O3           6.1630     0.6050     0.1750 oh         1 CWE      -0.491100
     19 O4          -4.2850     2.8080    -0.4760 oh         1 CWE      -0.481100
     20 O5          -4.1340    -1.8050     0.1560 oh         1 CWE      -0.498100
     21 H11         -1.6250     2.7220    -0.4610 ha         1 CWE       0.153000
     22 H31         -5.2930     0.4750    -0.1770 ha         1 CWE       0.169000
     23 H82          0.4100    -1.4110     1.4860 hc         1 CWE       0.088700
     24 H81          0.7110    -2.5380     0.1670 hc         1 CWE       0.088700
     25 H9           0.4780    -0.7470    -1.4970 h1         1 CWE       0.059700
     26 H111         2.6580    -0.7560    -2.2570 ha         1 CWE       0.136500
     27 H121         5.0570    -0.3030    -1.9640 ha         1 CWE       0.143000
     28 H141         4.3040     0.9800     2.0590 ha         1 CWE       0.143000
     29 H151         1.9250     0.5090     1.7680 ha         1 CWE       0.136500
     30 HO3          6.3750     0.9350     1.0550 ho         1 CWE       0.429000
     31 H41         -3.7330     3.5950    -0.5600 ho         1 CWE       0.435000
     32 H51         -3.4660    -2.5170     0.2940 ho         1 CWE       0.479000
@<TRIPOS>BOND
     1     1     2 ar  
     2     1     6 ar  
     3     1    21 1   
     4     2     3 ar  
     5     2    19 1   
     6     3     4 ar  
     7     3    22 1   
     8     4     5 ar  
     9     4    20 1   
    10     5     6 ar  
    11     5     7 1   
    12     6    10 1   
    13     7     8 1   
    14     7    11 2   
    15     8     9 1   
    16     8    23 1   
    17     8    24 1   
    18     9    10 1   
    19     9    12 1   
    20     9    25 1   
    21    12    13 ar  
    22    12    17 ar  
    23    13    14 ar  
    24    13    26 1   
    25    14    15 ar  
    26    14    27 1   
    27    15    16 ar  
    28    15    18 1   
    29    16    17 ar  
    30    16    28 1   
    31    17    29 1   
    32    18    30 1   
    33    19    31 1   
    34    20    32 1   
@<TRIPOS>SUBSTRUCTURE
     1 CWE         1 TEMP              0 ****  ****    0 ROOT
