@<TRIPOS>MOLECULE
CWE
   32    34     1     0     0
SMALL
No Charge or Current Charge


@<TRIPOS>ATOM
      1 C1          -2.2020     1.7870    -0.2870 ca         1 CWE      -0.315000
      2 C2          -3.5970     1.7440    -0.2590 ca         1 CWE       0.250100
      3 C3          -4.2580     0.5240    -0.1060 ca         1 CWE      -0.259000
      4 C4          -3.5240    -0.6550     0.0330 ca         1 CWE       0.289100
      5 C5          -2.1200    -0.6250     0.0200 ca         1 CWE      -0.423600
      6 C6          -1.4660     0.6050    -0.1600 ca         1 CWE       0.272100
      7 C7          -1.2980    -1.8550     0.2110 c          1 CWE       0.614700
      8 C8           0.1860    -1.6470     0.4320 c6         1 CWE      -0.206400
      9 C9           0.6680    -0.5090    -0.4730 c6         1 CWE       0.239600
     10 O1          -0.0950     0.6820    -0.2090 os         1 CWE      -0.338100
     11 O2          -1.7920    -2.9740     0.1530 o          1 CWE      -0.577100
     12 C10          2.1550    -0.1940    -0.2820 ca         1 CWE      -0.138300
     13 C11          3.0760    -0.4900    -1.3070 ca         1 CWE      -0.044500
     14 C12          4.4420    -0.2060    -1.1340 ca         1 CWE      -0.180000
     15 C13          4.8960     0.3730     0.0590 ca         1 CWE       0.154100
     16 C14          3.9860     0.6720     1.0850 ca         1 CWE      -0.180000
     17 C15          2.6190     0.3900     0.9160 ca         1 CWE      -0.044500
     18 O3           6.2220     0.6440     0.2150 oh         1 CWE      -0.530100
     19 O4          -4.3170     2.8890    -0.3890 oh         1 CWE      -0.520100
     20 O5          -4.1870    -1.8280     0.1850 oh         1 CWE      -0.537100
     21 H11         -1.6760     2.7290    -0.4140 ha         1 CWE       0.135000
     22 H31         -5.3430     0.4930    -0.0900 ha         1 CWE       0.151000
     23 H82          0.3070    -1.3040     1.4660 hc         1 CWE       0.088700
     24 H81          0.7380    -2.5850     0.2930 hc         1 CWE       0.088700
     25 H9           0.4930    -0.7950    -1.5210 h1         1 CWE       0.059700
     26 H111         2.7360    -0.9410    -2.2380 ha         1 CWE       0.118500
     27 H121         5.1480    -0.4370    -1.9280 ha         1 CWE       0.125000
     28 H141         4.3280     1.1230     2.0130 ha         1 CWE       0.125000
     29 H151         1.9190     0.6280     1.7150 ha         1 CWE       0.118500
     30 HO3          6.3550     1.0430     1.1010 ho         1 CWE       0.468000
     31 H41         -3.6850     3.6310    -0.4860 ho         1 CWE       0.474000
     32 H51         -3.4870    -2.5270     0.1980 ho         1 CWE       0.518000
@<TRIPOS>BOND
     1     1     2 ar  
     2     1     6 ar  
     3     1    21 1   
     4     2     3 ar  
     5     2    19 1   
     6     3     4 ar  
     7     3    22 1   
     8     4     5 ar  
     9     4    20 1   
    10     5     6 ar  
    11     5     7 1   
    12     6    10 1   
    13     7     8 1   
    14     7    11 2   
    15     8     9 1   
    16     8    23 1   
    17     8    24 1   
    18     9    10 1   
    19     9    12 1   
    20     9    25 1   
    21    12    13 ar  
    22    12    17 ar  
    23    13    14 ar  
    24    13    26 1   
    25    14    15 ar  
    26    14    27 1   
    27    15    16 ar  
    28    15    18 1   
    29    16    17 ar  
    30    16    28 1   
    31    17    29 1   
    32    18    30 1   
    33    19    31 1   
    34    20    32 1   
@<TRIPOS>SUBSTRUCTURE
     1 CWE         1 TEMP              0 ****  ****    0 ROOT
