@<TRIPOS>MOLECULE
CWF
   30    29     1     0     0
SMALL
abcg2


@<TRIPOS>ATOM
      1 OAC          4.5660    -1.1130    -0.5960 o          1 CWF      -0.744500
      2 CAK          4.5210    -0.0410     0.0390 c          1 CWF       0.716000
      3 OAD          5.4980     0.5610     0.5350 o          1 CWF      -0.744500
      4 CAI          3.1490     0.6320     0.2150 c3         1 CWF      -0.203400
      5 CAG          1.9350    -0.2530    -0.0190 c3         1 CWF      -0.054400
      6 CAE          0.6190     0.4880     0.1810 c3         1 CWF      -0.078400
      7 CAF         -0.6080    -0.3930    -0.0190 c3         1 CWF      -0.076400
      8 CAH         -1.9240     0.3440     0.1960 c3         1 CWF      -0.070400
      9 CAJ         -3.1390    -0.5540     0.0090 c3         1 CWF      -0.065400
     10 CAL         -4.4810     0.1140     0.2950 c3         1 CWF       0.152500
     11 CAA         -5.6160    -0.9050     0.2120 c3         1 CWF      -0.129100
     12 NAB         -4.6680     1.2650    -0.5830 n8         1 CWF      -0.982200
     13 H2           3.1000     1.0740     1.2160 hc         1 CWF       0.014200
     14 H3           3.1110     1.4870    -0.4740 hc         1 CWF       0.014200
     15 H4           1.9680    -0.6690    -1.0290 hc         1 CWF       0.036700
     16 H5           1.9680    -1.1110     0.6610 hc         1 CWF       0.036700
     17 H6           0.5920     0.9190     1.1890 hc         1 CWF       0.024700
     18 H7           0.5720     1.3380    -0.5090 hc         1 CWF       0.024700
     19 H8          -0.5900    -0.8170    -1.0300 hc         1 CWF       0.030700
     20 H9          -0.5560    -1.2460     0.6670 hc         1 CWF       0.030700
     21 H10         -1.9400     0.7670     1.2070 hc         1 CWF       0.041700
     22 H11         -1.9840     1.1950    -0.4890 hc         1 CWF       0.041700
     23 H12         -3.1510    -0.9520    -1.0140 hc         1 CWF       0.032700
     24 H13         -3.0460    -1.4250     0.6660 hc         1 CWF       0.032700
     25 H14         -4.4480     0.5010     1.3210 h1         1 CWF       0.056700
     26 H15         -6.5790    -0.4430     0.4380 hc         1 CWF       0.031700
     27 H16         -5.6790    -1.3330    -0.7920 hc         1 CWF       0.031700
     28 H17         -5.4710    -1.7280     0.9150 hc         1 CWF       0.031700
     29 H18         -4.7370     0.9390    -1.5410 hn         1 CWF       0.383000
     30 H19         -5.5620     1.6960    -0.3810 hn         1 CWF       0.383000
@<TRIPOS>BOND
     1     1     2 1   
     2     2     3 1   
     3     2     4 1   
     4     4     5 1   
     5     4    13 1   
     6     4    14 1   
     7     5     6 1   
     8     5    15 1   
     9     5    16 1   
    10     6     7 1   
    11     6    17 1   
    12     6    18 1   
    13     7     8 1   
    14     7    19 1   
    15     7    20 1   
    16     8     9 1   
    17     8    21 1   
    18     8    22 1   
    19     9    10 1   
    20     9    23 1   
    21     9    24 1   
    22    10    11 1   
    23    10    12 1   
    24    10    25 1   
    25    11    26 1   
    26    11    27 1   
    27    11    28 1   
    28    12    29 1   
    29    12    30 1   
@<TRIPOS>SUBSTRUCTURE
     1 CWF         1 TEMP              0 ****  ****    0 ROOT
