@<TRIPOS>MOLECULE
CWF
   30    29     1     0     0
SMALL
No Charge or Current Charge


@<TRIPOS>ATOM
      1 OAC          4.9810    -0.2250    -1.1480 o          1 CWF      -0.744500
      2 CAK          4.5310    -0.0850    -0.0210 c          1 CWF       0.716000
      3 OAD          5.0280    -0.5930     0.9720 o          1 CWF      -0.744500
      4 CAI          3.2330     0.7260     0.1490 c3         1 CWF      -0.203400
      5 CAG          2.0010    -0.2020     0.0160 c3         1 CWF      -0.054400
      6 CAE          0.6570     0.5450     0.1760 c3         1 CWF      -0.078400
      7 CAF         -0.5710    -0.3840     0.0430 c3         1 CWF      -0.076400
      8 CAH         -1.9140     0.3620     0.2030 c3         1 CWF      -0.070400
      9 CAJ         -3.1430    -0.5710     0.0720 c3         1 CWF      -0.065400
     10 CAL         -4.5090     0.1320     0.2890 c3         1 CWF       0.152500
     11 CAA         -5.6820    -0.8670     0.2950 c3         1 CWF      -0.129100
     12 NAB         -4.7570     1.1590    -0.7380 n8         1 CWF      -0.982200
     13 H2           3.1780     1.1550     1.1580 hc         1 CWF       0.014200
     14 H3           3.1370     1.4700    -0.6520 hc         1 CWF       0.014200
     15 H4           2.0240    -0.6930    -0.9650 hc         1 CWF       0.036700
     16 H5           2.0640    -0.9950     0.7710 hc         1 CWF       0.036700
     17 H6           0.6320     1.0350     1.1570 hc         1 CWF       0.024700
     18 H7           0.5920     1.3370    -0.5800 hc         1 CWF       0.024700
     19 H8          -0.5460    -0.8740    -0.9390 hc         1 CWF       0.030700
     20 H9          -0.5060    -1.1760     0.7980 hc         1 CWF       0.030700
     21 H10         -1.9390     0.8510     1.1850 hc         1 CWF       0.041700
     22 H11         -1.9730     1.1560    -0.5520 hc         1 CWF       0.041700
     23 H12         -3.1310    -1.0490    -0.9160 hc         1 CWF       0.032700
     24 H13         -3.0460    -1.3770     0.8090 hc         1 CWF       0.032700
     25 H14         -4.4870     0.6310     1.2690 h1         1 CWF       0.056700
     26 H15         -6.6340    -0.3520     0.4750 hc         1 CWF       0.031700
     27 H16         -5.7520    -1.4000    -0.6610 hc         1 CWF       0.031700
     28 H17         -5.5480    -1.6090     1.0900 hc         1 CWF       0.031700
     29 H18         -4.7940     0.7030    -1.6560 hn         1 CWF       0.383000
     30 H19         -5.7070     1.5270    -0.6140 hn         1 CWF       0.383000
@<TRIPOS>BOND
     1     1     2 1   
     2     2     3 1   
     3     2     4 1   
     4     4     5 1   
     5     4    13 1   
     6     4    14 1   
     7     5     6 1   
     8     5    15 1   
     9     5    16 1   
    10     6     7 1   
    11     6    17 1   
    12     6    18 1   
    13     7     8 1   
    14     7    19 1   
    15     7    20 1   
    16     8     9 1   
    17     8    21 1   
    18     8    22 1   
    19     9    10 1   
    20     9    23 1   
    21     9    24 1   
    22    10    11 1   
    23    10    12 1   
    24    10    25 1   
    25    11    26 1   
    26    11    27 1   
    27    11    28 1   
    28    12    29 1   
    29    12    30 1   
@<TRIPOS>SUBSTRUCTURE
     1 CWF         1 TEMP              0 ****  ****    0 ROOT
