@<TRIPOS>MOLECULE
CWG
   30    31     1     0     0
SMALL
abcg2


@<TRIPOS>ATOM
      1 C1          -0.5880     0.0930     0.0330 cp         1 CWG       0.309500
      2 C2           0.8920     0.1340     0.0470 cp         1 CWG      -0.136500
      3 C3          -1.3260    -1.0960    -0.1940 ca         1 CWG      -0.046300
      4 C11          3.0170    -0.6740     0.8760 ca         1 CWG      -0.108500
      5 C12         -3.2160     0.2900     0.1300 ca         1 CWG       0.528300
      6 C14          3.6640     0.2970     0.1290 ca         1 CWG       0.127000
      7 C17         -5.1000     1.6930     0.4110 c3         1 CWG       0.157900
      8 C10          2.9510     1.1930    -0.6530 ca         1 CWG      -0.108500
      9 C5           1.5680     1.1090    -0.6830 ca         1 CWG      -0.077000
     10 C6           1.6330    -0.7490     0.8300 ca         1 CWG      -0.077000
     11 C7          -2.6990    -1.0000    -0.1110 ca         1 CWG      -0.104300
     12 C8          -0.6600    -2.3910    -0.5490 c3         1 CWG      -0.053800
     13 N4          -1.1650     1.2570     0.2420 nb         1 CWG      -0.280000
     14 N9          -2.4760     1.3620     0.2780 nb         1 CWG      -0.412000
     15 O15         -4.5390     0.4050     0.1900 os         1 CWG      -0.458300
     16 CL1          5.3940     0.3950     0.1750 cl         1 CWG      -0.203000
     17 H1           3.5790    -1.3620     1.4920 ha         1 CWG       0.131000
     18 H2          -4.3760    -2.1750     0.5150 hc         1 CWG       0.052367
     19 H3          -4.1870    -2.0690    -1.2260 hc         1 CWG       0.052367
     20 H4          -3.1200    -3.1050    -0.2850 hc         1 CWG       0.052367
     21 H5          -4.7710     2.1200     1.3590 h1         1 CWG       0.050367
     22 H6          -4.8510     2.3860    -0.3930 h1         1 CWG       0.050367
     23 H7          -6.1770     1.5440     0.4380 h1         1 CWG       0.050367
     24 H8           3.4650     1.9490    -1.2300 ha         1 CWG       0.131000
     25 H9           1.0120     1.8090    -1.2920 ha         1 CWG       0.124500
     26 H10          1.1340    -1.4990     1.4300 ha         1 CWG       0.124500
     27 H11         -0.5950    -3.0560     0.3150 hc         1 CWG       0.054033
     28 H12         -1.2200    -2.9170    -1.3200 hc         1 CWG       0.054033
     29 H13          0.3490    -2.2400    -0.9240 hc         1 CWG       0.054033
     30 C13         -3.6380    -2.1510    -0.2860 c3         1 CWG      -0.040800
@<TRIPOS>BOND
     1     1     2 1   
     2     1     3 ar  
     3     1    13 ar  
     4     2     9 ar  
     5     2    10 ar  
     6     3    11 ar  
     7     3    12 1   
     8     4     6 ar  
     9     4    10 ar  
    10     4    17 1   
    11     5    11 ar  
    12     5    14 ar  
    13     5    15 1   
    14     6     8 ar  
    15     6    16 1   
    16     7    15 1   
    17     7    21 1   
    18     7    22 1   
    19     7    23 1   
    20     8     9 ar  
    21     8    24 1   
    22     9    25 1   
    23    10    26 1   
    24    11    30 1   
    25    12    27 1   
    26    12    28 1   
    27    12    29 1   
    28    13    14 ar  
    29    18    30 1   
    30    19    30 1   
    31    20    30 1   
@<TRIPOS>SUBSTRUCTURE
     1 CWG         1 TEMP              0 ****  ****    0 ROOT
