@<TRIPOS>MOLECULE
CWG
   30    31     1     0     0
SMALL
No Charge or Current Charge


@<TRIPOS>ATOM
      1 C1          -0.5540     0.1130     0.0530 cp         1 CWG       0.309500
      2 C2           0.9450     0.1540     0.0570 cp         1 CWG      -0.136500
      3 C3          -1.3240    -1.0690    -0.1840 ca         1 CWG      -0.046300
      4 C11          3.1110    -0.7130     0.8340 ca         1 CWG      -0.108500
      5 C12         -3.3030     0.3120     0.1470 ca         1 CWG       0.528300
      6 C14          3.7820     0.2660     0.0850 ca         1 CWG       0.127000
      7 C17         -5.2940     1.7260     0.4600 c3         1 CWG       0.157900
      8 C10          3.0510     1.1970    -0.6680 ca         1 CWG      -0.108500
      9 C5           1.6460     1.1440    -0.6790 ca         1 CWG      -0.077000
     10 C6           1.7070    -0.7670     0.8240 ca         1 CWG      -0.077000
     11 C7          -2.7420    -0.9650    -0.1130 ca         1 CWG      -0.104300
     12 C8          -0.6630    -2.4050    -0.5420 c3         1 CWG      -0.053800
     13 N4          -1.1710     1.2950     0.2880 nb         1 CWG      -0.280000
     14 N9          -2.5110     1.3990     0.3330 nb         1 CWG      -0.412000
     15 O15         -4.6780     0.4490     0.1990 os         1 CWG      -0.458300
     16 Cl1          5.5390     0.3330     0.0990 cl         1 CWG      -0.203000
     17 H1           3.6800    -1.4270     1.4250 ha         1 CWG       0.131000
     18 H2          -4.6590    -2.0360     0.0570 hc         1 CWG       0.052367
     19 H3          -3.7250    -2.4360    -1.3890 hc         1 CWG       0.052367
     20 H4          -3.2490    -3.0700     0.1970 hc         1 CWG       0.052367
     21 H5          -4.9860     2.1170     1.4390 h1         1 CWG       0.050367
     22 H6          -5.0200     2.4590    -0.3100 h1         1 CWG       0.050367
     23 H7          -6.3870     1.6290     0.4630 h1         1 CWG       0.050367
     24 H8           3.5720     1.9580    -1.2430 ha         1 CWG       0.131000
     25 H9           1.0930     1.8730    -1.2690 ha         1 CWG       0.124500
     26 H10          1.2030    -1.5210     1.4250 ha         1 CWG       0.124500
     27 H11         -0.5560    -3.0420     0.3450 hc         1 CWG       0.054033
     28 H12         -1.2420    -2.9610    -1.2870 hc         1 CWG       0.054033
     29 H13          0.3320    -2.2680    -0.9800 hc         1 CWG       0.054033
     30 C13         -3.6420    -2.1890    -0.3230 c3         1 CWG      -0.040800
@<TRIPOS>BOND
     1     1     2 1   
     2     1     3 ar  
     3     1    13 ar  
     4     2     9 ar  
     5     2    10 ar  
     6     3    11 ar  
     7     3    12 1   
     8     4     6 ar  
     9     4    10 ar  
    10     4    17 1   
    11     5    11 ar  
    12     5    14 ar  
    13     5    15 1   
    14     6     8 ar  
    15     6    16 1   
    16     7    15 1   
    17     7    21 1   
    18     7    22 1   
    19     7    23 1   
    20     8     9 ar  
    21     8    24 1   
    22     9    25 1   
    23    10    26 1   
    24    11    30 1   
    25    12    27 1   
    26    12    28 1   
    27    12    29 1   
    28    13    14 ar  
    29    18    30 1   
    30    19    30 1   
    31    20    30 1   
@<TRIPOS>SUBSTRUCTURE
     1 CWG         1 TEMP              0 ****  ****    0 ROOT
