@<TRIPOS>MOLECULE
CWH
   85    85     1     0     0
SMALL
No Charge or Current Charge


@<TRIPOS>ATOM
      1 CBG         -9.0520     2.0830    -0.0830 c3         1 CWH      -0.077100
      2 CAZ         -8.5460     0.8810     0.7770 c6         1 CWH      -0.194700
      3 CBA         -9.6520    -0.1710     1.0320 c          1 CWH       0.587100
      4 OBD        -10.8220     0.0210     0.7200 o          1 CWH      -0.507100
      5 CBB         -9.2310    -1.4690     1.7310 c6         1 CWH      -0.193700
      6 CBE         -9.1710    -1.2180     3.2680 c3         1 CWH      -0.080100
      7 CBC         -7.8810    -1.9800     1.2030 c6         1 CWH       0.397300
      8 OBF         -8.0190    -2.5390    -0.0890 oh         1 CWH      -0.682000
      9 OBH         -6.9350    -0.9130     1.1030 os         1 CWH      -0.483000
     10 CAY         -7.2830     0.1790     0.2270 c6         1 CWH       0.181300
     11 CAV         -6.0250     1.0890     0.1570 c3         1 CWH      -0.082400
     12 CAU         -4.7280     0.3980    -0.3460 c3         1 CWH       0.178300
     13 OAW         -4.8630     0.1270    -1.7590 os         1 CWH      -0.462100
     14 CAX         -5.3210    -1.0960    -2.1790 c          1 CWH       0.602100
     15 OBI         -5.6240    -2.0260    -1.4450 o          1 CWH      -0.500000
     16 CBJ         -5.4020    -1.1640    -3.6960 c3         1 CWH      -0.159100
     17 CAT         -3.4880     1.3100    -0.1910 c3         1 CWH      -0.083400
     18 CAS         -2.1620     0.6380    -0.6360 c3         1 CWH      -0.073400
     19 CAQ         -0.8730     1.4550    -0.3320 c3         1 CWH      -0.057700
     20 CAR         -0.8530     2.8150    -1.0790 c3         1 CWH      -0.088100
     21 CAP          0.3900     0.5960    -0.6330 c3         1 CWH      -0.071400
     22 CAO          1.7370     1.2210    -0.1790 c3         1 CWH      -0.106400
     23 CAM          2.9670     0.3080    -0.4100 c3         1 CWH       0.163300
     24 OAN          2.8470    -0.8650     0.4040 oh         1 CWH      -0.656000
     25 CAL          4.2990     1.0280    -0.0790 c3         1 CWH      -0.106400
     26 CAK          5.5680     0.2070    -0.4290 c3         1 CWH      -0.071400
     27 CAI          6.9170     0.8710    -0.0260 c3         1 CWH      -0.054700
     28 CAJ          7.1560     2.2160    -0.7630 c3         1 CWH      -0.091100
     29 CAH          8.0920    -0.1260    -0.2380 c3         1 CWH      -0.094400
     30 CAG          9.4540     0.3530     0.3090 c3         1 CWH       0.107000
     31 NAF         10.4770    -0.6840     0.1810 ns         1 CWH      -0.514900
     32 CAD         11.7630    -0.5740     0.6720 c          1 CWH       0.602100
     33 OAE         12.1380     0.4320     1.2650 o          1 CWH      -0.575100
     34 CAB         12.6810    -1.8180     0.4200 c3         1 CWH       0.095300
     35 CAC         13.2260    -2.4090     1.7380 c3         1 CWH      -0.129100
     36 OAA         13.7930    -1.5150    -0.4520 oh         1 CWH      -0.627000
     37 H1          -9.9430     2.5430     0.3620 hc         1 CWH       0.043033
     38 H2          -8.2970     2.8730    -0.1630 hc         1 CWH       0.043033
     39 H3          -9.3120     1.7640    -1.1000 hc         1 CWH       0.043033
     40 H4          -8.2570     1.2550     1.7680 hc         1 CWH       0.073700
     41 H5         -10.0190    -2.2160     1.5700 hc         1 CWH       0.093700
     42 H6         -10.1320    -0.8500     3.6480 hc         1 CWH       0.043367
     43 H7          -8.9370    -2.1430     3.8100 hc         1 CWH       0.043367
     44 H8          -8.4040    -0.4790     3.5310 hc         1 CWH       0.043367
     45 H9          -7.4870    -2.7470     1.8890 h2         1 CWH       0.072700
     46 H10         -7.1180    -2.4460    -0.4840 ho         1 CWH       0.469000
     47 H11         -7.4930    -0.1970    -0.7850 h1         1 CWH       0.054700
     48 H12         -6.2190     1.9480    -0.4950 hc         1 CWH       0.060200
     49 H13         -5.8330     1.5020     1.1540 hc         1 CWH       0.060200
     50 H14         -4.5440    -0.5190     0.2330 h1         1 CWH       0.084700
     51 H15         -4.4220    -0.9090    -4.1130 hc         1 CWH       0.069700
     52 H16         -5.7600    -2.1350    -4.0560 hc         1 CWH       0.069700
     53 H17         -6.0280    -0.3390    -4.0530 hc         1 CWH       0.069700
     54 H18         -3.6550     2.2280    -0.7660 hc         1 CWH       0.049700
     55 H19         -3.3970     1.6050     0.8620 hc         1 CWH       0.049700
     56 H20         -2.0900    -0.3330    -0.1310 hc         1 CWH       0.045700
     57 H21         -2.2060     0.4250    -1.7110 hc         1 CWH       0.045700
     58 H22         -0.8700     1.6710     0.7440 hc         1 CWH       0.042700
     59 H23         -1.7250     3.4240    -0.8220 hc         1 CWH       0.032367
     60 H24          0.0300     3.4050    -0.8110 hc         1 CWH       0.032367
     61 H25         -0.8480     2.6630    -2.1660 hc         1 CWH       0.032367
     62 H26          0.2730    -0.3750    -0.1350 hc         1 CWH       0.046700
     63 H27          0.4360     0.3870    -1.7090 hc         1 CWH       0.046700
     64 H28          1.9010     2.1520    -0.7330 hc         1 CWH       0.041700
     65 H29          1.6750     1.4910     0.8820 hc         1 CWH       0.041700
     66 H30          2.9880     0.0270    -1.4740 h1         1 CWH       0.071700
     67 H31          2.8310    -0.5610     1.3370 ho         1 CWH       0.436000
     68 H32          4.3190     1.9710    -0.6370 hc         1 CWH       0.042700
     69 H33          4.3170     1.2930     0.9860 hc         1 CWH       0.042700
     70 H34          5.5010    -0.7670     0.0710 hc         1 CWH       0.045700
     71 H35          5.5750     0.0000    -1.5070 hc         1 CWH       0.045700
     72 H36          6.8650     1.0890     1.0480 hc         1 CWH       0.047700
     73 H37          7.1990     2.0640    -1.8490 hc         1 CWH       0.035700
     74 H38          6.3590     2.9360    -0.5480 hc         1 CWH       0.035700
     75 H39          8.0940     2.6840    -0.4450 hc         1 CWH       0.035700
     76 H40          7.8430    -1.0730     0.2570 hc         1 CWH       0.043200
     77 H41          8.1930    -0.3470    -1.3080 hc         1 CWH       0.043200
     78 H42          9.7910     1.2420    -0.2390 h1         1 CWH       0.052700
     79 H43         12.0570    -2.5890    -0.0520 h1         1 CWH       0.026700
     80 H44         13.8710    -1.6870     2.2540 hc         1 CWH       0.048700
     81 H45         12.3990    -2.6710     2.4090 hc         1 CWH       0.048700
     82 H46         13.8080    -3.3190     1.5470 hc         1 CWH       0.048700
     83 H47         14.2940    -2.3490    -0.5900 ho         1 CWH       0.444000
     84 H48          9.3500     0.6180     1.3700 h1         1 CWH       0.052700
     85 H49         10.2430    -1.5420    -0.3040 hn         1 CWH       0.310500
@<TRIPOS>BOND
     1     1     2 1   
     2     1    37 1   
     3     1    38 1   
     4     1    39 1   
     5     2     3 1   
     6     2    10 1   
     7     2    40 1   
     8     3     4 2   
     9     3     5 1   
    10     5     6 1   
    11     5     7 1   
    12     5    41 1   
    13     6    42 1   
    14     6    43 1   
    15     6    44 1   
    16     7     8 1   
    17     7     9 1   
    18     7    45 1   
    19     8    46 1   
    20     9    10 1   
    21    10    11 1   
    22    10    47 1   
    23    11    12 1   
    24    11    48 1   
    25    11    49 1   
    26    12    13 1   
    27    12    17 1   
    28    12    50 1   
    29    13    14 1   
    30    14    15 2   
    31    14    16 1   
    32    16    51 1   
    33    16    52 1   
    34    16    53 1   
    35    17    18 1   
    36    17    54 1   
    37    17    55 1   
    38    18    19 1   
    39    18    56 1   
    40    18    57 1   
    41    19    20 1   
    42    19    21 1   
    43    19    58 1   
    44    20    59 1   
    45    20    60 1   
    46    20    61 1   
    47    21    22 1   
    48    21    62 1   
    49    21    63 1   
    50    22    23 1   
    51    22    64 1   
    52    22    65 1   
    53    23    24 1   
    54    23    25 1   
    55    23    66 1   
    56    24    67 1   
    57    25    26 1   
    58    25    68 1   
    59    25    69 1   
    60    26    27 1   
    61    26    70 1   
    62    26    71 1   
    63    27    28 1   
    64    27    29 1   
    65    27    72 1   
    66    28    73 1   
    67    28    74 1   
    68    28    75 1   
    69    29    30 1   
    70    29    76 1   
    71    29    77 1   
    72    30    31 1   
    73    30    78 1   
    74    30    84 1   
    75    31    32 1   
    76    31    85 1   
    77    32    33 2   
    78    32    34 1   
    79    34    35 1   
    80    34    36 1   
    81    34    79 1   
    82    35    80 1   
    83    35    81 1   
    84    35    82 1   
    85    36    83 1   
@<TRIPOS>SUBSTRUCTURE
     1 CWH         1 TEMP              0 ****  ****    0 ROOT
