@<TRIPOS>MOLECULE
CWH
   85    85     1     0     0
SMALL
abcg2


@<TRIPOS>ATOM
      1 CBG         -8.7640     2.1350     0.2710 c3         1 CWH      -0.077100
      2 CAZ         -8.3400     0.8530     0.9680 c6         1 CWH      -0.194700
      3 CBA         -9.4560    -0.1740     1.0110 c          1 CWH       0.587100
      4 OBD        -10.5790     0.0700     0.6340 o          1 CWH      -0.507100
      5 CBB         -9.0740    -1.5240     1.5760 c6         1 CWH      -0.193700
      6 CBE         -8.8920    -1.4410     3.0940 c3         1 CWH      -0.080100
      7 CBC         -7.7940    -2.0050     0.8920 c6         1 CWH       0.397300
      8 OBF         -8.1180    -2.3330    -0.4220 oh         1 CWH      -0.682000
      9 OBH         -6.7970    -1.0280     0.9670 os         1 CWH      -0.483000
     10 CAY         -7.0970     0.2010     0.3280 c6         1 CWH       0.181300
     11 CAV         -5.8480     1.0600     0.4330 c3         1 CWH      -0.082400
     12 CAU         -4.6150     0.4300    -0.2020 c3         1 CWH       0.178300
     13 OAW         -4.8740     0.2590    -1.6110 os         1 CWH      -0.462100
     14 CAX         -4.9860    -0.9490    -2.1510 c          1 CWH       0.602100
     15 OBI         -4.8670    -1.9850    -1.5430 o          1 CWH      -0.500000
     16 CBJ         -5.2980    -0.8550    -3.6170 c3         1 CWH      -0.159100
     17 CAT         -3.3830     1.3100    -0.0650 c3         1 CWH      -0.083400
     18 CAS         -2.1110     0.6460    -0.5790 c3         1 CWH      -0.073400
     19 CAQ         -0.8410     1.4840    -0.4040 c3         1 CWH      -0.057700
     20 CAR         -0.8270     2.6660    -1.3690 c3         1 CWH      -0.088100
     21 CAP          0.3890     0.5900    -0.5740 c3         1 CWH      -0.071400
     22 CAO          1.7240     1.2830    -0.3300 c3         1 CWH      -0.106400
     23 CAM          2.9160     0.3270    -0.3540 c3         1 CWH       0.163300
     24 OAN          2.7830    -0.7070     0.6060 oh         1 CWH      -0.656000
     25 CAL          4.2380     1.0760    -0.1980 c3         1 CWH      -0.106400
     26 CAK          5.4600     0.1770    -0.3340 c3         1 CWH      -0.071400
     27 CAI          6.8030     0.8700    -0.0820 c3         1 CWH      -0.054700
     28 CAJ          7.0610     1.9940    -1.0810 c3         1 CWH      -0.091100
     29 CAH          7.9180    -0.1790    -0.1110 c3         1 CWH      -0.094400
     30 CAG          9.2740     0.3390     0.3410 c3         1 CWH       0.107000
     31 NAF         10.2540    -0.7280     0.2960 ns         1 CWH      -0.514900
     32 CAD         11.5680    -0.5250     0.4530 c          1 CWH       0.602100
     33 OAE         12.0600     0.5780     0.6360 o          1 CWH      -0.575100
     34 CAB         12.4140    -1.7940     0.4370 c3         1 CWH       0.095300
     35 CAC         12.6390    -2.2710     1.8670 c3         1 CWH      -0.129100
     36 OAA         13.6150    -1.4670    -0.2140 oh         1 CWH      -0.627000
     37 H1          -9.6580     2.5530     0.7300 hc         1 CWH       0.043033
     38 H2          -7.9850     2.8920     0.3370 hc         1 CWH       0.043033
     39 H3          -8.9800     1.9670    -0.7850 hc         1 CWH       0.043033
     40 H4          -8.0830     1.0790     2.0110 hc         1 CWH       0.073700
     41 H5          -9.8780    -2.2330     1.3620 hc         1 CWH       0.093700
     42 H6          -9.8040    -1.0920     3.5770 hc         1 CWH       0.043367
     43 H7          -8.6670    -2.4290     3.4960 hc         1 CWH       0.043367
     44 H8          -8.0820    -0.7720     3.3810 hc         1 CWH       0.043367
     45 H9          -7.3840    -2.8680     1.4300 h2         1 CWH       0.072700
     46 H10         -7.3390    -2.7100    -0.8480 ho         1 CWH       0.469000
     47 H11         -7.3260     0.0350    -0.7330 h1         1 CWH       0.054700
     48 H12         -6.0330     2.0310    -0.0310 hc         1 CWH       0.060200
     49 H13         -5.6280     1.2530     1.4880 hc         1 CWH       0.060200
     50 H14         -4.4150    -0.5430     0.2490 h1         1 CWH       0.084700
     51 H15         -4.6730    -0.1100    -4.1080 hc         1 CWH       0.069700
     52 H16         -5.1600    -1.8190    -4.0970 hc         1 CWH       0.069700
     53 H17         -6.3360    -0.5470    -3.7520 hc         1 CWH       0.069700
     54 H18         -3.5670     2.2670    -0.5630 hc         1 CWH       0.049700
     55 H19         -3.2590     1.5360     0.9980 hc         1 CWH       0.049700
     56 H20         -1.9840    -0.3030    -0.0470 hc         1 CWH       0.045700
     57 H21         -2.2160     0.3910    -1.6390 hc         1 CWH       0.045700
     58 H22         -0.8280     1.8750     0.6220 hc         1 CWH       0.042700
     59 H23         -1.7090     3.2980    -1.2530 hc         1 CWH       0.032367
     60 H24          0.0430     3.3070    -1.2240 hc         1 CWH       0.032367
     61 H25         -0.8090     2.3120    -2.4030 hc         1 CWH       0.032367
     62 H26          0.3000    -0.2520     0.1170 hc         1 CWH       0.046700
     63 H27          0.3850     0.1600    -1.5830 hc         1 CWH       0.046700
     64 H28          1.8940     2.0530    -1.0870 hc         1 CWH       0.041700
     65 H29          1.7030     1.8060     0.6360 hc         1 CWH       0.041700
     66 H30          2.9240    -0.1860    -1.3230 h1         1 CWH       0.071700
     67 H31          2.7720    -0.2990     1.4790 ho         1 CWH       0.436000
     68 H32          4.2650     1.8700    -0.9500 hc         1 CWH       0.042700
     69 H33          4.2530     1.5820     0.7760 hc         1 CWH       0.042700
     70 H34          5.3680    -0.6560     0.3680 hc         1 CWH       0.045700
     71 H35          5.4730    -0.2670    -1.3370 hc         1 CWH       0.045700
     72 H36          6.7720     1.3040     0.9260 hc         1 CWH       0.047700
     73 H37          7.0810     1.6020    -2.1020 hc         1 CWH       0.035700
     74 H38          6.2900     2.7630    -1.0360 hc         1 CWH       0.035700
     75 H39          8.0140     2.4900    -0.9000 hc         1 CWH       0.035700
     76 H40          7.6280    -1.0150     0.5350 hc         1 CWH       0.043200
     77 H41          8.0050    -0.5840    -1.1260 hc         1 CWH       0.043200
     78 H42          9.6090     1.1570    -0.2980 h1         1 CWH       0.052700
     79 H43         11.8730    -2.5790    -0.1090 h1         1 CWH       0.026700
     80 H44         13.1390    -1.5050     2.4610 hc         1 CWH       0.048700
     81 H45         11.6950    -2.5210     2.3520 hc         1 CWH       0.048700
     82 H46         13.2580    -3.1700     1.8740 hc         1 CWH       0.048700
     83 H47         14.1740    -2.2510    -0.2110 ho         1 CWH       0.444000
     84 H48          9.1990     0.7410     1.3570 h1         1 CWH       0.052700
     85 H49          9.9250    -1.6650     0.1270 hn         1 CWH       0.310500
@<TRIPOS>BOND
     1     1     2 1   
     2     1    37 1   
     3     1    38 1   
     4     1    39 1   
     5     2     3 1   
     6     2    10 1   
     7     2    40 1   
     8     3     4 2   
     9     3     5 1   
    10     5     6 1   
    11     5     7 1   
    12     5    41 1   
    13     6    42 1   
    14     6    43 1   
    15     6    44 1   
    16     7     8 1   
    17     7     9 1   
    18     7    45 1   
    19     8    46 1   
    20     9    10 1   
    21    10    11 1   
    22    10    47 1   
    23    11    12 1   
    24    11    48 1   
    25    11    49 1   
    26    12    13 1   
    27    12    17 1   
    28    12    50 1   
    29    13    14 1   
    30    14    15 2   
    31    14    16 1   
    32    16    51 1   
    33    16    52 1   
    34    16    53 1   
    35    17    18 1   
    36    17    54 1   
    37    17    55 1   
    38    18    19 1   
    39    18    56 1   
    40    18    57 1   
    41    19    20 1   
    42    19    21 1   
    43    19    58 1   
    44    20    59 1   
    45    20    60 1   
    46    20    61 1   
    47    21    22 1   
    48    21    62 1   
    49    21    63 1   
    50    22    23 1   
    51    22    64 1   
    52    22    65 1   
    53    23    24 1   
    54    23    25 1   
    55    23    66 1   
    56    24    67 1   
    57    25    26 1   
    58    25    68 1   
    59    25    69 1   
    60    26    27 1   
    61    26    70 1   
    62    26    71 1   
    63    27    28 1   
    64    27    29 1   
    65    27    72 1   
    66    28    73 1   
    67    28    74 1   
    68    28    75 1   
    69    29    30 1   
    70    29    76 1   
    71    29    77 1   
    72    30    31 1   
    73    30    78 1   
    74    30    84 1   
    75    31    32 1   
    76    31    85 1   
    77    32    33 2   
    78    32    34 1   
    79    34    35 1   
    80    34    36 1   
    81    34    79 1   
    82    35    80 1   
    83    35    81 1   
    84    35    82 1   
    85    36    83 1   
@<TRIPOS>SUBSTRUCTURE
     1 CWH         1 TEMP              0 ****  ****    0 ROOT
