@<TRIPOS>MOLECULE
CWJ
   23    24     1     0     0
SMALL
bcc


@<TRIPOS>ATOM
      1 C1           0.7680    -0.7530     0.0250 ca         1 CWJ      -0.076200
      2 C2           0.5620     0.6430    -0.0330 ca         1 CWJ      -0.058800
      3 C12         -4.1700    -0.0420    -0.0440 c3         1 CWJ       0.128700
      4 C10          4.2630     0.2960     0.0100 c3         1 CWJ      -0.039900
      5 C4          -0.2950    -1.6430     0.0510 ca         1 CWJ      -0.112000
      6 C5          -0.7420     1.1440    -0.0650 ca         1 CWJ      -0.122000
      7 C6           1.8580     1.2450    -0.0470 cc         1 CWJ      -0.197200
      8 C7           2.7780     0.2310     0.0010 cd         1 CWJ      -0.051300
      9 C8          -1.5830    -1.1320     0.0180 ca         1 CWJ      -0.186000
     10 C9          -1.8080     0.2560    -0.0380 ca         1 CWJ       0.107100
     11 N3           2.1210    -0.9670     0.0440 na         1 CWJ      -0.176400
     12 O11         -3.0470     0.8090    -0.0710 os         1 CWJ      -0.324900
     13 H1          -5.0480     0.6010    -0.0710 h1         1 CWJ       0.036033
     14 H2          -4.2040    -0.7110    -0.9090 h1         1 CWJ       0.036033
     15 H3          -4.2100    -0.6460     0.8670 h1         1 CWJ       0.036033
     16 H4           4.6760    -0.1310     0.9250 hc         1 CWJ       0.048700
     17 H5           4.6910    -0.2560    -0.8290 hc         1 CWJ       0.048700
     18 H6           4.5970     1.3290    -0.0600 hc         1 CWJ       0.048700
     19 H7          -0.1370    -2.7130     0.0930 ha         1 CWJ       0.129000
     20 H8          -0.9270     2.2110    -0.1080 ha         1 CWJ       0.146000
     21 H9           2.0880     2.2980    -0.0890 ha         1 CWJ       0.154000
     22 H10         -2.4100    -1.8280     0.0380 ha         1 CWJ       0.131000
     23 H11          2.5670    -1.8680     0.0870 hn         1 CWJ       0.294700
@<TRIPOS>BOND
     1     1     2 ar  
     2     1     5 ar  
     3     1    11 1   
     4     2     6 ar  
     5     2     7 1   
     6     3    12 1   
     7     3    13 1   
     8     3    14 1   
     9     3    15 1   
    10     4     8 1   
    11     4    16 1   
    12     4    17 1   
    13     4    18 1   
    14     5     9 ar  
    15     5    19 1   
    16     6    10 ar  
    17     6    20 1   
    18     7     8 2   
    19     7    21 1   
    20     8    11 1   
    21     9    10 ar  
    22     9    22 1   
    23    10    12 1   
    24    11    23 1   
@<TRIPOS>SUBSTRUCTURE
     1 CWJ         1 TEMP              0 ****  ****    0 ROOT
