@<TRIPOS>MOLECULE
CWJ
   23    24     1     0     0
SMALL
No Charge or Current Charge


@<TRIPOS>ATOM
      1 C1           0.7930    -0.7590     0.0260 ca         1 CWJ      -0.076200
      2 C2           0.5770     0.5880    -0.0330 ca         1 CWJ      -0.058800
      3 C12         -4.2660    -0.0050    -0.0470 c3         1 CWJ       0.151900
      4 C10          4.3100     0.3420     0.0080 c3         1 CWJ      -0.039900
      5 C4          -0.2750    -1.6650     0.0550 ca         1 CWJ      -0.094000
      6 C5          -0.7100     1.1370    -0.0670 ca         1 CWJ      -0.104000
      7 C6           1.8590     1.2200    -0.0490 cc         1 CWJ      -0.247200
      8 C7           2.8110     0.2110     0.0010 cd         1 CWJ      -0.051300
      9 C8          -1.5900    -1.1490     0.0230 ca         1 CWJ      -0.168000
     10 C9          -1.8110     0.2550    -0.0380 ca         1 CWJ       0.107100
     11 N3           2.1510    -1.0400     0.0490 na         1 CWJ      -0.226700
     12 O11         -3.0770     0.8050    -0.0720 os         1 CWJ      -0.348100
     13 H1          -5.1600     0.6310    -0.0810 h1         1 CWJ       0.036033
     14 H2          -4.2960    -0.6800    -0.9120 h1         1 CWJ       0.036033
     15 H3          -4.3100    -0.6050     0.8710 h1         1 CWJ       0.036033
     16 H4           4.7390    -0.0950     0.9170 hc         1 CWJ       0.048700
     17 H5           4.7530    -0.1690    -0.8540 hc         1 CWJ       0.048700
     18 H6           4.6160     1.3940    -0.0340 hc         1 CWJ       0.048700
     19 H7          -0.0980    -2.7380     0.1020 ha         1 CWJ       0.111000
     20 H8          -0.8590     2.2130    -0.1130 ha         1 CWJ       0.128000
     21 H9           2.0670     2.2870    -0.0920 ha         1 CWJ       0.204000
     22 H10         -2.4210    -1.8490     0.0450 ha         1 CWJ       0.113000
     23 H11          2.5860    -1.9550     0.0910 hn         1 CWJ       0.345000
@<TRIPOS>BOND
     1     1     2 ar  
     2     1     5 ar  
     3     1    11 1   
     4     2     6 ar  
     5     2     7 1   
     6     3    12 1   
     7     3    13 1   
     8     3    14 1   
     9     3    15 1   
    10     4     8 1   
    11     4    16 1   
    12     4    17 1   
    13     4    18 1   
    14     5     9 ar  
    15     5    19 1   
    16     6    10 ar  
    17     6    20 1   
    18     7     8 2   
    19     7    21 1   
    20     8    11 1   
    21     9    10 ar  
    22     9    22 1   
    23    10    12 1   
    24    11    23 1   
@<TRIPOS>SUBSTRUCTURE
     1 CWJ         1 TEMP              0 ****  ****    0 ROOT
