@<TRIPOS>MOLECULE
CWK
   45    47     1     0     0
SMALL
abcg2


@<TRIPOS>ATOM
      1 CL           0.6230    -2.6160     1.0230 cl         1 CWK      -0.189000
      2 C1           2.7060     0.1180    -1.4080 c6         1 CWK       0.359300
      3 O1           1.8290    -0.8330    -0.8360 os         1 CWK      -0.375100
      4 C2           4.0850    -0.5480    -1.4310 c6         1 CWK       0.125300
      5 O2           4.9840     0.2550    -2.1480 oh         1 CWK      -0.687000
      6 C3           4.5920    -0.6930     0.0020 c6         1 CWK       0.141300
      7 O3           5.9160    -1.1670     0.0560 oh         1 CWK      -0.651000
      8 C4           4.5550     0.6520     0.7200 c6         1 CWK       0.146300
      9 O4           4.8830     0.5080     2.0810 oh         1 CWK      -0.721000
     10 C5           3.1460     1.2430     0.6450 c6         1 CWK       0.169300
     11 O5           2.7050     1.3080    -0.7060 os         1 CWK      -0.443000
     12 C6           3.0990     2.6510     1.1980 c3         1 CWK       0.169600
     13 O6           1.7650     3.0970     1.2040 oh         1 CWK      -0.712000
     14 CAA          0.5200    -0.5560    -0.7110 ca         1 CWK       0.161100
     15 CAB         -0.1560     0.4610    -1.3770 ca         1 CWK      -0.162000
     16 CAC         -1.5190     0.6270    -1.1990 ca         1 CWK      -0.058000
     17 CAD         -2.2490    -0.2020    -0.3510 cp         1 CWK      -0.069000
     18 CAE         -1.5690    -1.2130     0.3250 ca         1 CWK      -0.060000
     19 CAF         -0.2090    -1.3760     0.1520 ca         1 CWK       0.081000
     20 CAG         -3.7000    -0.0210    -0.1670 cp         1 CWK      -0.002000
     21 CAH         -4.5420    -1.1220     0.0020 ca         1 CWK      -0.108000
     22 CAI         -5.9020    -0.9580     0.1800 ca         1 CWK      -0.070500
     23 CAJ         -6.4470     0.3260     0.1890 ca         1 CWK      -0.020000
     24 CAK         -5.6220     1.4370     0.0190 ca         1 CWK      -0.070500
     25 CAL         -4.2630     1.2580    -0.1560 ca         1 CWK      -0.108000
     26 CAN         -7.8510     0.5020     0.3700 cg         1 CWK       0.324000
     27 NAO         -8.9850     0.6450     0.5160 n1         1 CWK      -0.452000
     28 H1           2.3880     0.3640    -2.4280 h2         1 CWK       0.077700
     29 H5           2.4690     0.6100     1.2380 h1         1 CWK       0.073700
     30 H2           3.9840    -1.5430    -1.8850 h1         1 CWK       0.053700
     31 HO2          4.7960     0.1670    -3.0870 ho         1 CWK       0.505000
     32 H3           3.9160    -1.3770     0.5320 h1         1 CWK       0.065700
     33 HO3          5.9080    -2.1240    -0.0310 ho         1 CWK       0.450000
     34 H4           5.2530     1.3410     0.2210 h1         1 CWK       0.069700
     35 HO4          5.7380     0.0690     2.1310 ho         1 CWK       0.523000
     36 H61          3.5250     2.6320     2.2070 h1         1 CWK       0.038200
     37 H62          3.7450     3.2960     0.5860 h1         1 CWK       0.038200
     38 HO6          1.7400     3.9420     1.6620 ho         1 CWK       0.503000
     39 HAB          0.3620     1.1280    -2.0530 ha         1 CWK       0.131000
     40 HAC         -2.0160     1.4130    -1.7530 ha         1 CWK       0.120000
     41 HAE         -2.0910    -1.8630     1.0160 ha         1 CWK       0.132000
     42 HAH         -4.1370    -2.1260    -0.0250 ha         1 CWK       0.122500
     43 HAI         -6.5420    -1.8210     0.3040 ha         1 CWK       0.126000
     44 HAK         -6.0400     2.4340     0.0340 ha         1 CWK       0.126000
     45 HAL         -3.6320     2.1310    -0.2620 ha         1 CWK       0.122500
@<TRIPOS>BOND
     1     1    19 1   
     2     2     3 1   
     3     2     4 1   
     4     2    11 1   
     5     2    28 1   
     6     3    14 1   
     7     4     5 1   
     8     4     6 1   
     9     4    30 1   
    10     5    31 1   
    11     6     7 1   
    12     6     8 1   
    13     6    32 1   
    14     7    33 1   
    15     8     9 1   
    16     8    10 1   
    17     8    34 1   
    18     9    35 1   
    19    10    11 1   
    20    10    12 1   
    21    10    29 1   
    22    12    13 1   
    23    12    36 1   
    24    12    37 1   
    25    13    38 1   
    26    14    15 ar  
    27    14    19 ar  
    28    15    16 ar  
    29    15    39 1   
    30    16    17 ar  
    31    16    40 1   
    32    17    18 ar  
    33    17    20 1   
    34    18    19 ar  
    35    18    41 1   
    36    20    21 ar  
    37    20    25 ar  
    38    21    22 ar  
    39    21    42 1   
    40    22    23 ar  
    41    22    43 1   
    42    23    24 ar  
    43    23    26 1   
    44    24    25 ar  
    45    24    44 1   
    46    25    45 1   
    47    26    27 3   
@<TRIPOS>SUBSTRUCTURE
     1 CWK         1 TEMP              0 ****  ****    0 ROOT
