@<TRIPOS>MOLECULE
CWK
   45    47     1     0     0
SMALL
No Charge or Current Charge


@<TRIPOS>ATOM
      1 Cl           0.4540    -2.7870     1.2270 cl         1 CWK      -0.189000
      2 C1           2.7210    -0.0270    -1.3470 c6         1 CWK       0.359300
      3 O1           1.8310    -0.9150    -0.6410 os         1 CWK      -0.375100
      4 C2           4.1670    -0.6370    -1.4190 c6         1 CWK       0.125300
      5 O2           5.0720     0.1530    -2.2360 oh         1 CWK      -0.687000
      6 C3           4.7450    -0.7340     0.0250 c6         1 CWK       0.141300
      7 O3           6.1000    -1.2160    -0.0220 oh         1 CWK      -0.651000
      8 C4           4.6930     0.6560     0.7340 c6         1 CWK       0.146300
      9 O4           5.1880     0.5340     2.0830 oh         1 CWK      -0.721000
     10 C5           3.2380     1.2190     0.6920 c6         1 CWK       0.169300
     11 O5           2.7540     1.2590    -0.6810 os         1 CWK      -0.443000
     12 C6           3.1430     2.6630     1.2880 c3         1 CWK       0.169600
     13 O6           1.8160     3.2270     1.2220 oh         1 CWK      -0.712000
     14 CAA          0.4710    -0.6670    -0.5470 ca         1 CWK       0.161100
     15 CAB         -0.1670     0.3650    -1.2700 ca         1 CWK      -0.162000
     16 CAC         -1.5520     0.5680    -1.1400 ca         1 CWK      -0.058000
     17 CAD         -2.3410    -0.2500    -0.2930 cp         1 CWK      -0.069000
     18 CAE         -1.6860    -1.2820     0.4230 ca         1 CWK      -0.060000
     19 CAF         -0.3020    -1.4890     0.2990 ca         1 CWK       0.081000
     20 CAG         -3.8160    -0.0310    -0.1580 cp         1 CWK      -0.002000
     21 CAH         -4.7060    -1.1210     0.0100 ca         1 CWK      -0.108000
     22 CAI         -6.0920    -0.9170     0.1360 ca         1 CWK      -0.070500
     23 CAJ         -6.6210     0.3870     0.0990 ca         1 CWK      -0.020000
     24 CAK         -5.7530     1.4820    -0.0670 ca         1 CWK      -0.070500
     25 CAL         -4.3690     1.2740    -0.1940 ca         1 CWK      -0.108000
     26 CAN         -8.0370     0.5970     0.2280 cg         1 CWK       0.324000
     27 NAO         -9.1860     0.7720     0.3430 n1         1 CWK      -0.452000
     28 H1           2.3530     0.1040    -2.3760 h2         1 CWK       0.077700
     29 H5           2.5810     0.5680     1.2860 h1         1 CWK       0.073700
     30 H2           4.0850    -1.6550    -1.8290 h1         1 CWK       0.053700
     31 HO2          4.7300     0.1390    -3.1610 ho         1 CWK       0.505000
     32 H3           4.1200    -1.4360     0.5990 h1         1 CWK       0.065700
     33 HO3          6.4550    -0.8620    -0.8710 ho         1 CWK       0.450000
     34 H4           5.3330     1.3510     0.1690 h1         1 CWK       0.069700
     35 HO4          5.9490    -0.0940     2.0220 ho         1 CWK       0.523000
     36 H61          3.4790     2.6250     2.3330 h1         1 CWK       0.038200
     37 H62          3.8520     3.3020     0.7440 h1         1 CWK       0.038200
     38 HO6          1.8790     4.1510     1.5580 ho         1 CWK       0.503000
     39 HAB          0.3890     1.0190    -1.9350 ha         1 CWK       0.131000
     40 HAC         -2.0210     1.3620    -1.7160 ha         1 CWK       0.120000
     41 HAE         -2.2520    -1.9220     1.0940 ha         1 CWK       0.132000
     42 HAH         -4.3230    -2.1380     0.0280 ha         1 CWK       0.122500
     43 HAI         -6.7520    -1.7730     0.2600 ha         1 CWK       0.126000
     44 HAK         -6.1490     2.4960    -0.0940 ha         1 CWK       0.126000
     45 HAL         -3.7170     2.1370    -0.3070 ha         1 CWK       0.122500
@<TRIPOS>BOND
     1     1    19 1   
     2     2     3 1   
     3     2     4 1   
     4     2    11 1   
     5     2    28 1   
     6     3    14 1   
     7     4     5 1   
     8     4     6 1   
     9     4    30 1   
    10     5    31 1   
    11     6     7 1   
    12     6     8 1   
    13     6    32 1   
    14     7    33 1   
    15     8     9 1   
    16     8    10 1   
    17     8    34 1   
    18     9    35 1   
    19    10    11 1   
    20    10    12 1   
    21    10    29 1   
    22    12    13 1   
    23    12    36 1   
    24    12    37 1   
    25    13    38 1   
    26    14    15 ar  
    27    14    19 ar  
    28    15    16 ar  
    29    15    39 1   
    30    16    17 ar  
    31    16    40 1   
    32    17    18 ar  
    33    17    20 1   
    34    18    19 ar  
    35    18    41 1   
    36    20    21 ar  
    37    20    25 ar  
    38    21    22 ar  
    39    21    42 1   
    40    22    23 ar  
    41    22    43 1   
    42    23    24 ar  
    43    23    26 1   
    44    24    25 ar  
    45    24    44 1   
    46    25    45 1   
    47    26    27 3   
@<TRIPOS>SUBSTRUCTURE
     1 CWK         1 TEMP              0 ****  ****    0 ROOT
