@<TRIPOS>MOLECULE
CWL
   35    34     1     0     0
SMALL
bcc


@<TRIPOS>ATOM
      1 OAD         -4.3350     0.7030    -1.8110 o          1 CWL      -0.861800
      2 CAN         -4.4750     0.9310    -0.5890 c          1 CWL       0.938600
      3 OAF         -5.5610     1.1280    -0.0040 o          1 CWL      -0.861800
      4 CAL         -3.1990     1.0680     0.2570 c3         1 CWL      -0.184400
      5 CAP         -2.0210     0.1720    -0.1260 c3         1 CWL      -0.044700
      6 CAO         -2.1770    -1.2730     0.3780 c3         1 CWL       0.181500
      7 CAA         -2.0380    -1.4110     1.8890 c3         1 CWL      -0.079100
      8 NAB         -3.4790    -1.8000    -0.0210 n8         1 CWL      -0.874800
      9 CAK         -0.6980     0.8040     0.3160 c3         1 CWL      -0.073400
     10 CAI          0.5620     0.0140    -0.0250 c3         1 CWL      -0.076400
     11 CAG          1.8350     0.8270     0.1820 c3         1 CWL      -0.080400
     12 CAH          3.1110     0.0250    -0.0460 c3         1 CWL      -0.055400
     13 CAJ          4.3700     0.8600     0.1150 c3         1 CWL      -0.201400
     14 CAM          5.7060     0.1180    -0.0690 c          1 CWL       0.925600
     15 OAE          5.6690    -1.1130    -0.2630 o          1 CWL      -0.857800
     16 OAC          6.7370     0.8230    -0.0020 o          1 CWL      -0.857800
     17 H2          -2.8770     2.1120     0.1480 hc         1 CWL       0.016200
     18 H3          -3.4450     0.9510     1.3160 hc         1 CWL       0.016200
     19 H4          -1.9980     0.1210    -1.2210 hc         1 CWL       0.061700
     20 H5          -1.3580    -1.8530    -0.0740 h1         1 CWL      -0.010300
     21 H6          -2.7510    -0.7780     2.4190 hc         1 CWL       0.023033
     22 H7          -2.2220    -2.4430     2.1960 hc         1 CWL       0.023033
     23 H8          -1.0350    -1.1520     2.2300 hc         1 CWL       0.023033
     24 H9          -3.6210    -1.6410    -1.0100 hn         1 CWL       0.332800
     25 H10         -3.4880    -2.8040     0.1100 hn         1 CWL       0.332800
     26 H12         -0.6280     1.7910    -0.1540 hc         1 CWL       0.025200
     27 H13         -0.7160     0.9980     1.3950 hc         1 CWL       0.025200
     28 H14          0.6140    -0.8920     0.5870 hc         1 CWL       0.029700
     29 H15          0.5150    -0.3260    -1.0660 hc         1 CWL       0.029700
     30 H16          1.8210     1.6920    -0.4900 hc         1 CWL       0.020700
     31 H17          1.8420     1.2380     1.1980 hc         1 CWL       0.020700
     32 H18          3.1340    -0.8180     0.6510 hc         1 CWL       0.035200
     33 H19          3.0860    -0.4170    -1.0480 hc         1 CWL       0.035200
     34 H20          4.3480     1.7010    -0.5890 hc         1 CWL       0.012700
     35 H21          4.3760     1.3270     1.1070 hc         1 CWL       0.012700
@<TRIPOS>BOND
     1     1     2 1   
     2     2     3 1   
     3     2     4 1   
     4     4     5 1   
     5     4    17 1   
     6     4    18 1   
     7     5     6 1   
     8     5     9 1   
     9     5    19 1   
    10     6     7 1   
    11     6     8 1   
    12     6    20 1   
    13     7    21 1   
    14     7    22 1   
    15     7    23 1   
    16     8    24 1   
    17     8    25 1   
    18     9    10 1   
    19     9    26 1   
    20     9    27 1   
    21    10    11 1   
    22    10    28 1   
    23    10    29 1   
    24    11    12 1   
    25    11    30 1   
    26    11    31 1   
    27    12    13 1   
    28    12    32 1   
    29    12    33 1   
    30    13    14 1   
    31    13    34 1   
    32    13    35 1   
    33    14    15 1   
    34    14    16 1   
@<TRIPOS>SUBSTRUCTURE
     1 CWL         1 TEMP              0 ****  ****    0 ROOT
