@<TRIPOS>MOLECULE
CWL
   35    34     1     0     0
SMALL
No Charge or Current Charge


@<TRIPOS>ATOM
      1 OAD         -4.7660     1.1210    -1.5690 o          1 CWL      -0.756500
      2 CAN         -4.5540     0.8550    -0.3940 c          1 CWL       0.728000
      3 OAF         -5.4060     0.3960     0.3540 o          1 CWL      -0.756500
      4 CAL         -3.1830     1.2490     0.2000 c3         1 CWL      -0.184400
      5 CAP         -2.0200     0.2430    -0.1190 c3         1 CWL      -0.044700
      6 CAO         -2.2240    -1.2280     0.3960 c3         1 CWL       0.181500
      7 CAA         -2.4520    -1.3600     1.9200 c3         1 CWL      -0.079100
      8 NAB         -3.2710    -1.9500    -0.3440 n8         1 CWL      -0.985200
      9 CAK         -0.6680     0.8670     0.3550 c3         1 CWL      -0.073400
     10 CAI          0.6090     0.0930    -0.0560 c3         1 CWL      -0.076400
     11 CAG          1.9100     0.8490     0.2950 c3         1 CWL      -0.080400
     12 CAH          3.1870     0.0770    -0.1060 c3         1 CWL      -0.055400
     13 CAJ          4.4920     0.8330     0.2450 c3         1 CWL      -0.201400
     14 CAM          5.7190     0.0060    -0.1820 c          1 CWL       0.715000
     15 OAE          6.1810    -0.7960     0.6150 o          1 CWL      -0.752500
     16 OAC          6.1500     0.1540    -1.3160 o          1 CWL      -0.752500
     17 H2          -2.8660     2.1810    -0.2850 hc         1 CWL       0.016200
     18 H3          -3.2480     1.3420     1.2910 hc         1 CWL       0.016200
     19 H4          -1.9560     0.1830    -1.2130 hc         1 CWL       0.061700
     20 H5          -1.3110    -1.7890     0.1670 h1         1 CWL      -0.010300
     21 H6          -3.3790    -0.8640     2.2310 hc         1 CWL       0.023033
     22 H7          -2.5190    -2.4160     2.2100 hc         1 CWL       0.023033
     23 H8          -1.6210    -0.9180     2.4800 hc         1 CWL       0.023033
     24 H9          -3.0070    -1.9920    -1.3330 hn         1 CWL       0.388000
     25 H10         -3.2640    -2.9320    -0.0490 hn         1 CWL       0.388000
     26 H12         -0.5880     1.8800    -0.0590 hc         1 CWL       0.025200
     27 H13         -0.6780     0.9860     1.4450 hc         1 CWL       0.025200
     28 H14          0.6320    -0.8810     0.4470 hc         1 CWL       0.029700
     29 H15          0.5850    -0.0990    -1.1360 hc         1 CWL       0.029700
     30 H16          1.9070     1.8240    -0.2080 hc         1 CWL       0.020700
     31 H17          1.9310     1.0450     1.3740 hc         1 CWL       0.020700
     32 H18          3.1900    -0.8980     0.3970 hc         1 CWL       0.035200
     33 H19          3.1640    -0.1200    -1.1850 hc         1 CWL       0.035200
     34 H20          4.4520     1.7770    -0.3140 hc         1 CWL       0.012700
     35 H21          4.4790     0.9660     1.3340 hc         1 CWL       0.012700
@<TRIPOS>BOND
     1     1     2 1   
     2     2     3 1   
     3     2     4 1   
     4     4     5 1   
     5     4    17 1   
     6     4    18 1   
     7     5     6 1   
     8     5     9 1   
     9     5    19 1   
    10     6     7 1   
    11     6     8 1   
    12     6    20 1   
    13     7    21 1   
    14     7    22 1   
    15     7    23 1   
    16     8    24 1   
    17     8    25 1   
    18     9    10 1   
    19     9    26 1   
    20     9    27 1   
    21    10    11 1   
    22    10    28 1   
    23    10    29 1   
    24    11    12 1   
    25    11    30 1   
    26    11    31 1   
    27    12    13 1   
    28    12    32 1   
    29    12    33 1   
    30    13    14 1   
    31    13    34 1   
    32    13    35 1   
    33    14    15 1   
    34    14    16 1   
@<TRIPOS>SUBSTRUCTURE
     1 CWL         1 TEMP              0 ****  ****    0 ROOT
