@<TRIPOS>MOLECULE
CWN
  160   167     1     0     0
SMALL
No Charge or Current Charge


@<TRIPOS>ATOM
      1 C31         28.9990    27.1830    35.1340 c          1 CWN       0.645700
      2 C32         30.0340    27.8120    34.2680 cc         1 CWN      -0.228600
      3 C33         30.1610    27.6370    32.9050 cd         1 CWN      -0.169000
      4 C34         31.2540    28.3940    32.4570 cd         1 CWN      -0.021400
      5 C35         31.8220    29.0480    33.5120 cc         1 CWN      -0.180000
      6 O31         28.9520    27.3510    36.3450 o          1 CWN      -0.611100
      7 O21         23.3780    22.7820    35.2290 o          1 CWN      -0.609100
      8 C03         23.9030    22.1280    20.3150 c3         1 CWN       0.102600
      9 C05         22.5580    22.9530    22.3280 c3         1 CWN       0.114000
     10 N02         22.4530    22.9660    23.7890 ns         1 CWN      -0.513900
     11 N01         25.1410    21.3830    19.8180 nx         1 CWN      -0.671000
     12 C01         25.3850    21.6350    18.3230 c3         1 CWN       0.080400
     13 C02         25.1040    19.8780    20.1320 c3         1 CWN       0.080400
     14 C11         22.2370    20.9190    29.0700 c          1 CWN       0.644700
     15 N03         23.0900    21.5220    28.1780 ns         1 CWN      -0.511900
     16 C14         23.3390    22.3190    32.3260 cc         1 CWN      -0.010400
     17 N11         21.7700    20.9120    31.6300 na         1 CWN       0.066000
     18 C13         23.4390    22.1920    30.9330 cc         1 CWN      -0.179000
     19 N12         24.1710    23.1170    33.0980 ns         1 CWN      -0.374100
     20 C15         22.3080    21.5340    32.7640 cd         1 CWN      -0.159000
     21 N21         25.5240    24.6730    36.2290 na         1 CWN       0.071000
     22 CM1         20.6420    19.9700    31.6570 c3         1 CWN       0.059900
     23 N22         28.1090    26.3800    34.4440 ns         1 CWN      -0.369100
     24 O91         32.8620    27.9140    24.2530 o          1 CWN      -0.586100
     25 C12         22.4720    21.3220    30.4830 cd         1 CWN      -0.254600
     26 N31         31.0680    28.6900    34.6310 na         1 CWN       0.060000
     27 O51         30.8700    30.9530    24.2360 o          1 CWN      -0.601100
     28 O61         30.7270    32.2760    31.4590 o          1 CWN      -0.609100
     29 C24         27.0410    25.6360    34.9260 cc         1 CWN      -0.022400
     30 N32         31.6490    28.4390    31.1310 ns         1 CWN      -0.354100
     31 O71         25.8040    29.2820    35.9850 o          1 CWN      -0.607100
     32 C25         26.6270    25.5350    36.2250 cd         1 CWN      -0.163000
     33 N41         33.6890    29.5100    28.1740 na         1 CWN      -0.113500
     34 O81         20.5030    24.7240    33.8190 o          1 CWN      -0.598100
     35 N42         31.9430    28.1210    28.3740 nc         1 CWN      -0.714000
     36 C22         25.2520    24.2410    34.9190 cd         1 CWN      -0.226600
     37 C23         26.2000    24.8470    34.1260 cc         1 CWN      -0.184000
     38 N91         29.2810    29.5100    25.0080 ns         1 CWN      -0.507900
     39 N51         31.2850    31.8640    27.1240 na         1 CWN       0.068000
     40 CM3         31.3320    29.1820    35.9910 c3         1 CWN       0.060900
     41 N61         28.9890    31.3040    33.7620 na         1 CWN       0.076000
     42 C41         32.6970    29.1440    30.5520 c          1 CWN       0.544600
     43 N71         23.4660    27.3690    35.6490 na         1 CWN       0.062000
     44 C42         32.7730    28.9250    29.0560 cd         1 CWN       0.362000
     45 C43         32.3300    28.2230    27.0840 cc         1 CWN       0.363900
     46 C44         33.3980    29.0490    26.9040 cd         1 CWN      -0.217000
     47 C91         31.8220    27.5350    24.7730 c          1 CWN       0.596100
     48 C08         23.0640    21.3230    26.7290 c3         1 CWN       0.115000
     49 C51         30.2270    30.4970    25.1690 c          1 CWN       0.640700
     50 C54         30.0550    31.1380    28.8220 cc         1 CWN      -0.012400
     51 C53         29.6230    30.5000    27.6520 cc         1 CWN      -0.189000
     52 C55         31.0830    31.9820    28.5070 cd         1 CWN      -0.180000
     53 CM5         32.3140    32.5940    26.3700 c3         1 CWN       0.058900
     54 C52         30.3740    30.9380    26.5860 cd         1 CWN      -0.222600
     55 C61         29.8200    31.4700    31.2950 c          1 CWN       0.646700
     56 C63         27.8740    30.1150    32.2620 cc         1 CWN      -0.191000
     57 C64         27.2840    29.9060    33.5150 cc         1 CWN      -0.026400
     58 C65         27.9670    30.6350    34.4490 cd         1 CWN      -0.164000
     59 CM6         29.9640    32.2030    34.3960 c3         1 CWN       0.059900
     60 C62         28.9340    30.9840    32.3940 cd         1 CWN      -0.224600
     61 C71         25.5050    28.8090    34.8970 c          1 CWN       0.645700
     62 C74         22.8310    26.5220    33.6990 cc         1 CWN      -0.023400
     63 C75         22.5300    26.5280    35.0320 cd         1 CWN      -0.175000
     64 CM7         23.4950    27.6620    37.0890 c3         1 CWN       0.059900
     65 C72         24.3540    27.8810    34.6880 cd         1 CWN      -0.218600
     66 C81         21.0710    24.9910    32.7650 c          1 CWN       0.535600
     67 C92         30.6660    26.9660    23.9370 c3         1 CWN      -0.146400
     68 C93         29.9890    28.0500    23.0500 c3         1 CWN      -0.099400
     69 C94         28.8880    28.8930    23.7390 c3         1 CWN       0.108000
     70 C73         23.9450    27.3460    33.4860 cc         1 CWN      -0.179000
     71 C07         21.9690    22.1690    26.0550 c3         1 CWN      -0.187400
     72 C06         21.9610    21.9290    24.5490 c          1 CWN       0.597100
     73 O01         21.5200    20.9050    24.0510 o          1 CWN      -0.587100
     74 C82         20.6790    24.4780    31.4000 cc         1 CWN       0.211500
     75 C84         19.6240    23.6030    31.2030 cd         1 CWN      -0.123300
     76 CM8         18.6830    22.9890    32.2120 c3         1 CWN      -0.026800
     77 S81         19.4430    23.2140    29.5010 ss         1 CWN      -0.035400
     78 C83         20.8090    24.2720    29.1830 cd         1 CWN       0.395300
     79 N81         21.3440    24.8620    30.2440 nc         1 CWN      -0.635000
     80 H33         29.5320    27.0250    32.2670 ha         1 CWN       0.129000
     81 H35         32.6680    29.7190    33.5680 h4         1 CWN       0.180000
     82 H031        23.9570    23.1620    19.9620 hx         1 CWN       0.098200
     83 H032        23.0150    21.6660    19.8740 hx         1 CWN       0.098200
     84 H042        23.6780    21.1070    22.2140 hc         1 CWN       0.071700
     85 H041        24.6850    22.5570    22.2870 hc         1 CWN       0.071700
     86 H052        22.6490    23.9890    21.9730 h1         1 CWN       0.070200
     87 H051        21.6360    22.5320    21.9040 h1         1 CWN       0.070200
     88 HN02        22.7820    23.7840    24.2890 hn         1 CWN       0.322500
     89 HN01        25.9650    21.7840    20.3280 hn         1 CWN       0.499000
     90 H004        26.3080    21.1400    18.0090 hx         1 CWN       0.101867
     91 H005        24.5490    21.2350    17.7440 hx         1 CWN       0.101867
     92 H006        25.4710    22.7080    18.1370 hx         1 CWN       0.101867
     93 H001        25.0180    19.7240    21.2100 hx         1 CWN       0.101867
     94 H002        24.2450    19.4230    19.6340 hx         1 CWN       0.101867
     95 H003        26.0200    19.4030    19.7740 hx         1 CWN       0.101867
     96 HN03        23.7790    22.1490    28.5720 hn         1 CWN       0.318500
     97 H13         24.1780    22.7170    30.3350 ha         1 CWN       0.122000
     98 HN1         24.8910    23.6390    32.6210 hn         1 CWN       0.321500
     99 H15         21.9190    21.3650    33.7600 h4         1 CWN       0.187000
    100 H112        20.2670    19.8650    32.6820 h1         1 CWN       0.063033
    101 H111        19.8350    20.3460    31.0160 h1         1 CWN       0.063033
    102 H113        20.9730    18.9920    31.2910 h1         1 CWN       0.063033
    103 HN2         28.2880    26.3500    33.4510 hn         1 CWN       0.321500
    104 HN3         31.1270    27.9030    30.4450 hn         1 CWN       0.344500
    105 H25         27.0120    25.9890    37.1300 h4         1 CWN       0.185000
    106 H223        25.1780    24.8190    38.3080 h1         1 CWN       0.062367
    107 H222        23.7190    24.5540    37.3100 h1         1 CWN       0.062367
    108 H221        24.8660    23.2100    37.5940 h1         1 CWN       0.062367
    109 HN4         30.7580    27.1170    26.4410 hn         1 CWN       0.324500
    110 H23         26.3130    24.7540    33.0500 ha         1 CWN       0.120000
    111 HN9         28.8030    29.2190    25.8500 hn         1 CWN       0.306500
    112 HN5         28.7240    30.2700    30.1250 hn         1 CWN       0.317500
    113 H332        31.5790    28.3370    36.6450 h1         1 CWN       0.061700
    114 H331        32.1740    29.8850    35.9780 h1         1 CWN       0.061700
    115 H333        30.4420    29.6940    36.3750 h1         1 CWN       0.061700
    116 HN6         25.7970    28.6160    32.9230 hn         1 CWN       0.318500
    117 HN7         22.5050    25.9410    31.7400 hn         1 CWN       0.338500
    118 H44         33.9280    29.3520    26.0110 h4         1 CWN       0.187000
    119 H443        34.3050    31.3640    28.9740 h1         1 CWN       0.067367
    120 H442        35.4570    30.0140    29.2110 h1         1 CWN       0.067367
    121 H441        35.2860    30.7730    27.6020 h1         1 CWN       0.067367
    122 H081        22.8970    20.2580    26.5160 h1         1 CWN       0.059200
    123 H082        24.0460    21.5980    26.3190 h1         1 CWN       0.059200
    124 H53         28.8140    29.7760    27.6300 ha         1 CWN       0.122000
    125 H55         31.6740    32.6430    29.1290 h4         1 CWN       0.174000
    126 H553        32.9110    33.2100    27.0530 h1         1 CWN       0.062700
    127 H551        32.9710    31.8790    25.8620 h1         1 CWN       0.062700
    128 H552        31.8330    33.2400    25.6270 h1         1 CWN       0.062700
    129 H63         27.5170    29.6480    31.3490 ha         1 CWN       0.120000
    130 H65         27.8200    30.7340    35.5170 h4         1 CWN       0.183000
    131 H663        29.8030    32.2240    35.4800 h1         1 CWN       0.063367
    132 H661        30.9800    31.8470    34.1880 h1         1 CWN       0.063367
    133 H662        29.8430    33.2160    33.9930 h1         1 CWN       0.063367
    134 H75         21.7490    26.0210    35.5840 h4         1 CWN       0.179000
    135 H771        22.7190    27.0830    37.6040 h1         1 CWN       0.062700
    136 H773        24.4760    27.3940    37.4990 h1         1 CWN       0.062700
    137 H772        23.3120    28.7310    37.2480 h1         1 CWN       0.062700
    138 H921        29.9110    26.4980    24.5800 hc         1 CWN       0.056200
    139 H922        31.0880    26.2050    23.2690 hc         1 CWN       0.056200
    140 H932        30.7550    28.7170    22.6340 hc         1 CWN       0.069700
    141 H931        29.5280    27.5530    22.1870 hc         1 CWN       0.069700
    142 H942        28.5570    29.6840    23.0520 h1         1 CWN       0.055700
    143 H943        28.0220    28.2460    23.9350 h1         1 CWN       0.055700
    144 H73         24.3880    27.5110    32.5090 ha         1 CWN       0.124000
    145 H072        22.1620    23.2260    26.2710 hc         1 CWN       0.077200
    146 H071        20.9960    21.8720    26.4620 hc         1 CWN       0.077200
    147 H883        17.9850    22.2900    31.7360 hc         1 CWN       0.065700
    148 H881        19.2330    22.4330    32.9810 hc         1 CWN       0.065700
    149 H882        18.0870    23.7590    32.7140 hc         1 CWN       0.065700
    150 H83         21.1520    24.4100    28.1660 h5         1 CWN       0.040100
    151 CM2         24.7760    24.2910    37.4350 c3         1 CWN       0.060900
    152 C21         24.1710    23.3180    34.4650 c          1 CWN       0.651700
    153 CM4         34.7490    30.4740    28.5110 c3         1 CWN       0.058900
    154 O41         33.4680    29.8520    31.1960 o          1 CWN      -0.608100
    155 N43         31.6070    27.5640    26.1300 ns         1 CWN      -0.463400
    156 N52         29.4940    30.9210    30.0710 ns         1 CWN      -0.375100
    157 O11         21.3720    20.1310    28.7160 o          1 CWN      -0.611100
    158 N62         26.1840    29.0890    33.7260 ns         1 CWN      -0.371100
    159 C04         23.7730    22.1360    21.8490 c3         1 CWN      -0.137400
    160 N72         22.1680    25.8350    32.6920 ns         1 CWN      -0.360100
@<TRIPOS>BOND
     1     1     2 1   
     2     1     6 2   
     3     1    23 1   
     4     2     3 2   
     5     2    26 1   
     6     3     4 1   
     7     3    80 1   
     8     4     5 2   
     9     4    30 1   
    10     5    26 1   
    11     5    81 1   
    12     7   152 2   
    13     8    11 1   
    14     8    82 1   
    15     8    83 1   
    16     8   159 1   
    17     9    10 1   
    18     9    86 1   
    19     9    87 1   
    20     9   159 1   
    21    10    72 1   
    22    10    88 1   
    23    11    12 1   
    24    11    13 1   
    25    11    89 1   
    26    12    90 1   
    27    12    91 1   
    28    12    92 1   
    29    13    93 1   
    30    13    94 1   
    31    13    95 1   
    32    14    15 1   
    33    14    25 1   
    34    14   157 2   
    35    15    48 1   
    36    15    96 1   
    37    16    18 1   
    38    16    19 1   
    39    16    20 2   
    40    17    20 1   
    41    17    22 1   
    42    17    25 1   
    43    18    25 2   
    44    18    97 1   
    45    19    98 1   
    46    19   152 1   
    47    20    99 1   
    48    21    32 1   
    49    21    36 1   
    50    21   151 1   
    51    22   100 1   
    52    22   101 1   
    53    22   102 1   
    54    23    29 1   
    55    23   103 1   
    56    24    47 2   
    57    26    40 1   
    58    27    49 2   
    59    28    55 2   
    60    29    32 2   
    61    29    37 1   
    62    30    42 1   
    63    30   104 1   
    64    31    61 2   
    65    32   105 1   
    66    33    44 1   
    67    33    46 1   
    68    33   153 1   
    69    34    66 2   
    70    35    44 2   
    71    35    45 1   
    72    36    37 2   
    73    36   152 1   
    74    37   110 1   
    75    38    49 1   
    76    38    69 1   
    77    38   111 1   
    78    39    52 1   
    79    39    53 1   
    80    39    54 1   
    81    40   113 1   
    82    40   114 1   
    83    40   115 1   
    84    41    58 1   
    85    41    59 1   
    86    41    60 1   
    87    42    44 1   
    88    42   154 2   
    89    43    63 1   
    90    43    64 1   
    91    43    65 1   
    92    45    46 2   
    93    45   155 1   
    94    46   118 1   
    95    47    67 1   
    96    47   155 1   
    97    48    71 1   
    98    48   122 1   
    99    48   123 1   
   100    49    54 1   
   101    50    51 1   
   102    50    52 2   
   103    50   156 1   
   104    51    54 2   
   105    51   124 1   
   106    52   125 1   
   107    53   126 1   
   108    53   127 1   
   109    53   128 1   
   110    55    60 1   
   111    55   156 1   
   112    56    57 1   
   113    56    60 2   
   114    56   129 1   
   115    57    58 2   
   116    57   158 1   
   117    58   130 1   
   118    59   131 1   
   119    59   132 1   
   120    59   133 1   
   121    61    65 1   
   122    61   158 1   
   123    62    63 2   
   124    62    70 1   
   125    62   160 1   
   126    63   134 1   
   127    64   135 1   
   128    64   136 1   
   129    64   137 1   
   130    65    70 2   
   131    66    74 1   
   132    66   160 1   
   133    67    68 1   
   134    67   138 1   
   135    67   139 1   
   136    68    69 1   
   137    68   140 1   
   138    68   141 1   
   139    69   142 1   
   140    69   143 1   
   141    70   144 1   
   142    71    72 1   
   143    71   145 1   
   144    71   146 1   
   145    72    73 2   
   146    74    75 2   
   147    74    79 1   
   148    75    76 1   
   149    75    77 1   
   150    76   147 1   
   151    76   148 1   
   152    76   149 1   
   153    77    78 1   
   154    78    79 2   
   155    78   150 1   
   156    84   159 1   
   157    85   159 1   
   158   106   151 1   
   159   107   151 1   
   160   108   151 1   
   161   109   155 1   
   162   112   156 1   
   163   116   158 1   
   164   117   160 1   
   165   119   153 1   
   166   120   153 1   
   167   121   153 1   
@<TRIPOS>SUBSTRUCTURE
     1 CWN         1 TEMP              0 ****  ****    0 ROOT
