@<TRIPOS>MOLECULE
CWN
  160   167     1     0     0
SMALL
abcg2


@<TRIPOS>ATOM
      1 C31         29.2720    26.6240    34.5930 c          1 CWN       0.645700
      2 C32         30.3770    27.2240    33.8380 cc         1 CWN      -0.228600
      3 C33         30.4530    27.5440    32.4880 cd         1 CWN      -0.169000
      4 C34         31.6790    28.2100    32.2830 cd         1 CWN      -0.021400
      5 C35         32.3300    28.2680    33.5080 cc         1 CWN      -0.180000
      6 O31         29.1390    26.7570    35.8130 o          1 CWN      -0.611100
      7 O21         23.3490    22.8330    34.7290 o          1 CWN      -0.609100
      8 C03         22.5760    19.2360    20.5810 c3         1 CWN       0.102600
      9 C05         21.4740    20.8550    22.1410 c3         1 CWN       0.114000
     10 N02         21.3980    21.3710    23.4960 ns         1 CWN      -0.513900
     11 N01         23.6740    18.2310    20.3540 nx         1 CWN      -0.671000
     12 C01         23.8470    17.9560    18.8950 c3         1 CWN       0.080400
     13 C02         23.4580    16.9590    21.1110 c3         1 CWN       0.080400
     14 C11         21.6200    20.4790    29.0450 c          1 CWN       0.644700
     15 N03         22.2470    20.9720    27.9480 ns         1 CWN      -0.511900
     16 C14         23.0710    22.2380    31.9550 cc         1 CWN      -0.010400
     17 N11         21.3730    20.8630    31.5100 na         1 CWN       0.066000
     18 C13         23.0900    21.9420    30.5780 cc         1 CWN      -0.179000
     19 N12         24.0050    23.0730    32.5670 ns         1 CWN      -0.374100
     20 C15         21.9960    21.5570    32.5090 cd         1 CWN      -0.159000
     21 N21         25.4540    24.6880    35.5120 na         1 CWN       0.071000
     22 CM1         20.2000    20.0300    31.7390 c3         1 CWN       0.059900
     23 N22         28.3860    25.9210    33.8370 ns         1 CWN      -0.369100
     24 O91         33.7520    31.4750    24.9480 o          1 CWN      -0.586100
     25 C12         22.0260    21.0880    30.3170 cd         1 CWN      -0.254600
     26 N31         31.5310    27.6730    34.4410 na         1 CWN       0.060000
     27 O51         31.6190    34.2520    25.4150 o          1 CWN      -0.601100
     28 O61         31.1850    32.1420    32.2420 o          1 CWN      -0.609100
     29 C24         27.2040    25.3290    34.2880 cc         1 CWN      -0.022400
     30 N32         32.0950    28.7310    31.0590 ns         1 CWN      -0.354100
     31 O71         25.8890    28.7570    35.5510 o          1 CWN      -0.607100
     32 C25         26.6150    25.4060    35.5420 cd         1 CWN      -0.163000
     33 N41         34.3030    30.8310    29.0570 na         1 CWN      -0.113500
     34 O81         20.3670    24.9260    33.1920 o          1 CWN      -0.598100
     35 N42         32.6330    29.5080    28.4360 nc         1 CWN      -0.714000
     36 C22         25.2820    24.1450    34.2580 cd         1 CWN      -0.226600
     37 C23         26.3690    24.5320    33.4810 cc         1 CWN      -0.184000
     38 N91         30.3310    32.3930    25.1910 ns         1 CWN      -0.507900
     39 N51         31.9510    33.5380    28.2490 na         1 CWN       0.068000
     40 CM3         31.8990    27.5820    35.8460 c3         1 CWN       0.060900
     41 N61         29.4020    30.5730    33.9470 na         1 CWN       0.076000
     42 C41         33.2240    29.4480    30.8500 c          1 CWN       0.544600
     43 N71         23.3750    27.3960    34.9590 na         1 CWN       0.062000
     44 C42         33.3800    29.9170    29.4610 cd         1 CWN       0.362000
     45 C43         33.0930    30.1820    27.3500 cc         1 CWN       0.363900
     46 C44         34.1380    31.0090    27.7080 cd         1 CWN      -0.217000
     47 C91         32.8080    30.6910    24.9810 c          1 CWN       0.596100
     48 C08         21.9960    20.4880    26.6090 c3         1 CWN       0.115000
     49 C51         31.0320    33.2910    25.9250 c          1 CWN       0.640700
     50 C54         30.6080    32.2100    29.4340 cc         1 CWN      -0.012400
     51 C53         30.1780    32.1930    28.0920 cc         1 CWN      -0.189000
     52 C55         31.7120    33.0470    29.5040 cd         1 CWN      -0.180000
     53 CM5         33.0780    34.4060    27.9390 c3         1 CWN       0.058900
     54 C52         31.0270    33.0200    27.3690 cd         1 CWN      -0.222600
     55 C61         30.2310    31.5130    31.7750 c          1 CWN       0.646700
     56 C63         28.0810    30.1520    32.1980 cc         1 CWN      -0.191000
     57 C64         27.4950    29.5860    33.3450 cc         1 CWN      -0.026400
     58 C65         28.3330    29.8640    34.4150 cd         1 CWN      -0.164000
     59 CM6         30.4810    31.0270    34.8140 c3         1 CWN       0.059900
     60 C62         29.2710    30.7610    32.5880 cd         1 CWN      -0.224600
     61 C71         25.5630    28.4750    34.3950 c          1 CWN       0.645700
     62 C74         22.7960    26.4420    33.0280 cc         1 CWN      -0.023400
     63 C75         22.4140    26.6410    34.3480 cd         1 CWN      -0.175000
     64 CM7         23.2630    27.8550    36.3370 c3         1 CWN       0.059900
     65 C72         24.3720    27.6920    34.0530 cd         1 CWN      -0.218600
     66 C81         20.9890    25.0410    32.1330 c          1 CWN       0.535600
     67 C92         31.9550    30.4260    23.7550 c3         1 CWN      -0.146400
     68 C93         31.5080    31.7300    23.0790 c3         1 CWN      -0.099400
     69 C94         30.2820    32.3780    23.7390 c3         1 CWN       0.108000
     70 C73         24.0280    27.1000    32.8440 cc         1 CWN      -0.179000
     71 C07         20.9230    21.3080    25.8720 c3         1 CWN      -0.187400
     72 C06         20.7240    20.7440    24.4820 c          1 CWN       0.597100
     73 O01         20.0310    19.7450    24.2800 o          1 CWN      -0.587100
     74 C82         20.5300    24.4310    30.8620 cc         1 CWN       0.211500
     75 C84         19.4350    23.6120    30.7330 cd         1 CWN      -0.123300
     76 CM8         18.4640    23.1340    31.7600 c3         1 CWN      -0.026800
     77 S81         19.2830    23.1550    29.0760 ss         1 CWN      -0.035400
     78 C83         20.6810    24.0880    28.6830 cd         1 CWN       0.395300
     79 N81         21.2220    24.6890    29.6960 nc         1 CWN      -0.635000
     80 H33         29.6860    27.3820    31.7480 ha         1 CWN       0.129000
     81 H35         33.2870    28.6740    33.7720 h4         1 CWN       0.180000
     82 H031        22.7740    20.0580    19.8930 hx         1 CWN       0.098200
     83 H032        21.6490    18.7470    20.2810 hx         1 CWN       0.098200
     84 H042        22.2520    18.9400    22.7000 hc         1 CWN       0.071700
     85 H041        23.4960    20.1310    22.3050 hc         1 CWN       0.071700
     86 H052        21.7210    21.6860    21.4810 h1         1 CWN       0.070200
     87 H051        20.4910    20.4780    21.8590 h1         1 CWN       0.070200
     88 HN02        21.9890    22.1500    23.7390 hn         1 CWN       0.322500
     89 HN01        24.5470    18.6480    20.6890 hn         1 CWN       0.499000
     90 H004        24.6760    17.2650    18.7720 hx         1 CWN       0.101867
     91 H005        22.9250    17.5150    18.5230 hx         1 CWN       0.101867
     92 H006        24.0540    18.8940    18.3870 hx         1 CWN       0.101867
     93 H001        23.4480    17.1700    22.1750 hx         1 CWN       0.101867
     94 H002        22.5070    16.5390    20.7920 hx         1 CWN       0.101867
     95 H003        24.2730    16.2810    20.8730 hx         1 CWN       0.101867
     96 HN03        22.8300    21.7860    28.0490 hn         1 CWN       0.318500
     97 H13         23.8090    22.3160    29.8680 ha         1 CWN       0.122000
     98 HN1         24.6300    23.5570    31.9400 hn         1 CWN       0.321500
     99 H15         21.6280    21.5330    33.5170 h4         1 CWN       0.187000
    100 H112        19.8920    20.1710    32.7720 h1         1 CWN       0.063033
    101 H111        19.3900    20.3220    31.0750 h1         1 CWN       0.063033
    102 H113        20.4320    18.9810    31.5660 h1         1 CWN       0.063033
    103 HN2         28.6150    25.7710    32.8670 hn         1 CWN       0.321500
    104 HN3         31.4800    28.6140    30.2660 hn         1 CWN       0.344500
    105 H25         26.9230    25.9290    36.4260 h4         1 CWN       0.185000
    106 H223        24.9520    25.2260    37.4410 h1         1 CWN       0.062367
    107 H222        23.5630    24.8120    36.4150 h1         1 CWN       0.062367
    108 H221        24.6000    23.5290    37.0490 h1         1 CWN       0.062367
    109 HN4         31.6720    29.4060    26.1010 hn         1 CWN       0.324500
    110 H23         26.5520    24.2770    32.4500 ha         1 CWN       0.120000
    111 HN9         29.9800    31.5790    25.6660 hn         1 CWN       0.306500
    112 HN5         29.1980    30.9180    30.1260 hn         1 CWN       0.317500
    113 H332        31.6580    26.5990    36.2390 h1         1 CWN       0.061700
    114 H331        32.9710    27.7500    35.9220 h1         1 CWN       0.061700
    115 H333        31.3730    28.3350    36.4320 h1         1 CWN       0.061700
    116 HN6         25.9220    28.6890    32.4010 hn         1 CWN       0.318500
    117 HN7         22.5660    25.7430    31.1000 hn         1 CWN       0.338500
    118 H44         34.7320    31.7010    27.1460 h4         1 CWN       0.187000
    119 H443        34.8920    31.7340    30.8450 h1         1 CWN       0.067367
    120 H442        36.2160    31.0190    29.9120 h1         1 CWN       0.067367
    121 H441        35.4560    32.5270    29.3540 h1         1 CWN       0.067367
    122 H081        21.6840    19.4480    26.6760 h1         1 CWN       0.059200
    123 H082        22.9330    20.5280    26.0520 h1         1 CWN       0.059200
    124 H53         29.3300    31.6470    27.7120 ha         1 CWN       0.122000
    125 H55         32.3430    33.3070    30.3320 h4         1 CWN       0.174000
    126 H553        33.6970    34.4780    28.8300 h1         1 CWN       0.062700
    127 H551        33.6650    33.9860    27.1260 h1         1 CWN       0.062700
    128 H552        32.7360    35.3980    27.6490 h1         1 CWN       0.062700
    129 H63         27.6660    30.1080    31.2040 ha         1 CWN       0.120000
    130 H65         28.2560    29.5940    35.4500 h4         1 CWN       0.183000
    131 H663        30.3010    30.6180    35.8050 h1         1 CWN       0.063367
    132 H661        31.4380    30.6700    34.4460 h1         1 CWN       0.063367
    133 H662        30.5040    32.1140    34.8670 h1         1 CWN       0.063367
    134 H75         21.5440    26.3100    34.8810 h4         1 CWN       0.179000
    135 H771        22.3270    27.4740    36.7370 h1         1 CWN       0.062700
    136 H773        24.0930    27.4860    36.9330 h1         1 CWN       0.062700
    137 H772        23.2590    28.9420    36.3780 h1         1 CWN       0.062700
    138 H921        31.0980    29.7940    23.9970 hc         1 CWN       0.056200
    139 H922        32.5850    29.8630    23.0610 hc         1 CWN       0.056200
    140 H932        32.3460    32.4270    23.0820 hc         1 CWN       0.069700
    141 H931        31.2580    31.5300    22.0350 hc         1 CWN       0.069700
    142 H942        30.1700    33.4010    23.3800 h1         1 CWN       0.055700
    143 H943        29.3830    31.8260    23.4630 h1         1 CWN       0.055700
    144 H73         24.6130    27.0920    31.9390 ha         1 CWN       0.124000
    145 H072        21.2300    22.3540    25.8320 hc         1 CWN       0.077200
    146 H071        19.9790    21.2410    26.4130 hc         1 CWN       0.077200
    147 H883        17.8040    22.3700    31.3520 hc         1 CWN       0.065700
    148 H881        18.9930    22.7230    32.6190 hc         1 CWN       0.065700
    149 H882        17.8520    23.9610    32.1230 hc         1 CWN       0.065700
    150 H83         21.0540    24.1400    27.6700 h5         1 CWN       0.040100
    151 CM2         24.5850    24.5500    36.6730 c3         1 CWN       0.060900
    152 C21         24.1340    23.3080    33.9010 c          1 CWN       0.651700
    153 CM4         35.2800    31.5730    29.8470 c3         1 CWN       0.058900
    154 O41         34.0480    29.6940    31.7340 o          1 CWN      -0.608100
    155 N43         32.4820    30.0080    26.1110 ns         1 CWN      -0.463400
    156 N52         29.9700    31.4820    30.4380 ns         1 CWN      -0.375100
    157 O11         20.7860    19.5700    28.9690 o          1 CWN      -0.611100
    158 N62         26.3000    28.8660    33.3180 ns         1 CWN      -0.371100
    159 C04         22.5180    19.7410    22.0110 c3         1 CWN      -0.137400
    160 N72         22.1400    25.7420    32.0170 ns         1 CWN      -0.360100
@<TRIPOS>BOND
     1     1     2 1   
     2     1     6 2   
     3     1    23 1   
     4     2     3 2   
     5     2    26 1   
     6     3     4 1   
     7     3    80 1   
     8     4     5 2   
     9     4    30 1   
    10     5    26 1   
    11     5    81 1   
    12     7   152 2   
    13     8    11 1   
    14     8    82 1   
    15     8    83 1   
    16     8   159 1   
    17     9    10 1   
    18     9    86 1   
    19     9    87 1   
    20     9   159 1   
    21    10    72 1   
    22    10    88 1   
    23    11    12 1   
    24    11    13 1   
    25    11    89 1   
    26    12    90 1   
    27    12    91 1   
    28    12    92 1   
    29    13    93 1   
    30    13    94 1   
    31    13    95 1   
    32    14    15 1   
    33    14    25 1   
    34    14   157 2   
    35    15    48 1   
    36    15    96 1   
    37    16    18 1   
    38    16    19 1   
    39    16    20 2   
    40    17    20 1   
    41    17    22 1   
    42    17    25 1   
    43    18    25 2   
    44    18    97 1   
    45    19    98 1   
    46    19   152 1   
    47    20    99 1   
    48    21    32 1   
    49    21    36 1   
    50    21   151 1   
    51    22   100 1   
    52    22   101 1   
    53    22   102 1   
    54    23    29 1   
    55    23   103 1   
    56    24    47 2   
    57    26    40 1   
    58    27    49 2   
    59    28    55 2   
    60    29    32 2   
    61    29    37 1   
    62    30    42 1   
    63    30   104 1   
    64    31    61 2   
    65    32   105 1   
    66    33    44 1   
    67    33    46 1   
    68    33   153 1   
    69    34    66 2   
    70    35    44 2   
    71    35    45 1   
    72    36    37 2   
    73    36   152 1   
    74    37   110 1   
    75    38    49 1   
    76    38    69 1   
    77    38   111 1   
    78    39    52 1   
    79    39    53 1   
    80    39    54 1   
    81    40   113 1   
    82    40   114 1   
    83    40   115 1   
    84    41    58 1   
    85    41    59 1   
    86    41    60 1   
    87    42    44 1   
    88    42   154 2   
    89    43    63 1   
    90    43    64 1   
    91    43    65 1   
    92    45    46 2   
    93    45   155 1   
    94    46   118 1   
    95    47    67 1   
    96    47   155 1   
    97    48    71 1   
    98    48   122 1   
    99    48   123 1   
   100    49    54 1   
   101    50    51 1   
   102    50    52 2   
   103    50   156 1   
   104    51    54 2   
   105    51   124 1   
   106    52   125 1   
   107    53   126 1   
   108    53   127 1   
   109    53   128 1   
   110    55    60 1   
   111    55   156 1   
   112    56    57 1   
   113    56    60 2   
   114    56   129 1   
   115    57    58 2   
   116    57   158 1   
   117    58   130 1   
   118    59   131 1   
   119    59   132 1   
   120    59   133 1   
   121    61    65 1   
   122    61   158 1   
   123    62    63 2   
   124    62    70 1   
   125    62   160 1   
   126    63   134 1   
   127    64   135 1   
   128    64   136 1   
   129    64   137 1   
   130    65    70 2   
   131    66    74 1   
   132    66   160 1   
   133    67    68 1   
   134    67   138 1   
   135    67   139 1   
   136    68    69 1   
   137    68   140 1   
   138    68   141 1   
   139    69   142 1   
   140    69   143 1   
   141    70   144 1   
   142    71    72 1   
   143    71   145 1   
   144    71   146 1   
   145    72    73 2   
   146    74    75 2   
   147    74    79 1   
   148    75    76 1   
   149    75    77 1   
   150    76   147 1   
   151    76   148 1   
   152    76   149 1   
   153    77    78 1   
   154    78    79 2   
   155    78   150 1   
   156    84   159 1   
   157    85   159 1   
   158   106   151 1   
   159   107   151 1   
   160   108   151 1   
   161   109   155 1   
   162   112   156 1   
   163   116   158 1   
   164   117   160 1   
   165   119   153 1   
   166   120   153 1   
   167   121   153 1   
@<TRIPOS>SUBSTRUCTURE
     1 CWN         1 TEMP              0 ****  ****    0 ROOT
