@<TRIPOS>MOLECULE
CWP
   35    37     1     0     0
SMALL
abcg2


@<TRIPOS>ATOM
      1 C1          -0.6760     0.5340    -0.2010 cc         1 CWP       0.658700
      2 C3          -2.6970    -0.1850     0.2810 ca         1 CWP       0.346500
      3 C12          2.9000     0.1560     0.6240 cc         1 CWP      -0.178300
      4 C13          3.9760     0.9020     1.0450 cd         1 CWP      -0.210000
      5 C14          5.0800     0.3680     0.3540 cd         1 CWP       0.255300
      6 C17          6.5080     0.7870     0.4370 c3         1 CWP      -0.119400
      7 C18          1.4620     0.2600     0.9980 c3         1 CWP       0.292100
      8 C10         -6.1000    -1.2220     0.8570 c3         1 CWP      -0.139400
      9 C4          -2.7040     0.6930    -0.8180 ca         1 CWP       0.064400
     10 C7          -4.9100    -0.5330     0.2600 ca         1 CWP       0.356300
     11 C8          -5.0420     0.3220    -0.8360 ca         1 CWP      -0.174000
     12 C9          -3.9330     0.9530    -1.3970 ca         1 CWP      -0.035000
     13 N11          3.3810    -0.7480    -0.2540 na         1 CWP       0.148800
     14 N15          4.6960    -0.6240    -0.4310 nc         1 CWP      -0.513800
     15 N19          0.6670     0.6560    -0.1480 nu         1 CWP      -0.896400
     16 N2          -1.3770    -0.2660     0.6560 na         1 CWP      -0.462300
     17 N5          -1.4320     1.1280    -1.0940 nd         1 CWP      -0.638100
     18 N6          -3.7230    -0.7900     0.8260 nb         1 CWP      -0.677000
     19 H1           3.9650     1.7120     1.7560 ha         1 CWP       0.145000
     20 H2           2.3590    -1.3180    -1.9980 h1         1 CWP       0.059700
     21 H3           3.2590    -2.6010    -1.1670 h1         1 CWP       0.059700
     22 H4           1.7400    -2.0090    -0.4940 h1         1 CWP       0.059700
     23 H5           6.9100     0.6270     1.4390 hc         1 CWP       0.048033
     24 H6           7.1200     0.2240    -0.2650 hc         1 CWP       0.048033
     25 H7           6.6240     1.8470     0.2100 hc         1 CWP       0.048033
     26 H8           1.1120    -0.7070     1.3660 h1         1 CWP       0.051700
     27 H9           1.3720     0.9670     1.8270 h1         1 CWP       0.051700
     28 H10         -6.1570    -1.0450     1.9320 hc         1 CWP       0.049033
     29 H11         -7.0300    -0.8770     0.4080 hc         1 CWP       0.049033
     30 H12         -6.0410    -2.3020     0.7120 hc         1 CWP       0.049033
     31 H13         -6.0240     0.4930    -1.2550 ha         1 CWP       0.122000
     32 H14         -4.0370     1.6150    -2.2470 ha         1 CWP       0.132000
     33 H15          1.0330     1.4160    -0.7010 hn         1 CWP       0.513000
     34 H16         -1.0200    -0.8030     1.4300 hn         1 CWP       0.364000
     35 C16          2.6420    -1.7180    -1.0250 c3         1 CWP       0.072900
@<TRIPOS>BOND
     1     1    15 1   
     2     1    16 1   
     3     1    17 2   
     4     2     9 ar  
     5     2    16 1   
     6     2    18 ar  
     7     3     4 2   
     8     3     7 1   
     9     3    13 1   
    10     4     5 1   
    11     4    19 1   
    12     5     6 1   
    13     5    14 2   
    14     6    23 1   
    15     6    24 1   
    16     6    25 1   
    17     7    15 1   
    18     7    26 1   
    19     7    27 1   
    20     8    10 1   
    21     8    28 1   
    22     8    29 1   
    23     8    30 1   
    24     9    12 ar  
    25     9    17 1   
    26    10    11 ar  
    27    10    18 ar  
    28    11    12 ar  
    29    11    31 1   
    30    12    32 1   
    31    13    14 1   
    32    13    35 1   
    33    15    33 1   
    34    16    34 1   
    35    20    35 1   
    36    21    35 1   
    37    22    35 1   
@<TRIPOS>SUBSTRUCTURE
     1 CWP         1 TEMP              0 ****  ****    0 ROOT
