@<TRIPOS>MOLECULE
CWP
   35    37     1     0     0
SMALL
No Charge or Current Charge


@<TRIPOS>ATOM
      1 C1          -0.6990     0.2080    -0.1910 cc         1 CWP       0.658700
      2 C3          -2.7860    -0.2170     0.3280 ca         1 CWP       0.346500
      3 C12          2.9180    -0.1000     0.5800 cc         1 CWP      -0.178300
      4 C13          3.7730     0.9290     0.8540 cd         1 CWP      -0.210000
      5 C14          5.0160     0.6120     0.2750 cd         1 CWP       0.255300
      6 C17          6.2640     1.4480     0.3180 c3         1 CWP      -0.119400
      7 C18          1.4750    -0.2940     0.9510 c3         1 CWP       0.292100
      8 C10         -6.3810    -0.7020     0.8730 c3         1 CWP      -0.139400
      9 C4          -2.6870     0.5920    -0.7890 ca         1 CWP       0.064400
     10 C7          -5.0800    -0.2210     0.2590 ca         1 CWP       0.356300
     11 C8          -5.0770     0.6060    -0.8900 ca         1 CWP      -0.174000
     12 C9          -3.8490     1.0300    -1.4370 ca         1 CWP      -0.035000
     13 N11          3.7020    -0.9850    -0.1610 na         1 CWP       0.148800
     14 N15          5.0010    -0.5480    -0.3490 nc         1 CWP      -0.513800
     15 N19          0.6440     0.2000    -0.1410 nu         1 CWP      -0.896400
     16 N2          -1.5090    -0.4520     0.6960 na         1 CWP      -0.462300
     17 N5          -1.3640     0.8700    -1.1300 nd         1 CWP      -0.638100
     18 N6          -3.9420    -0.6370     0.8700 nb         1 CWP      -0.677000
     19 H1           3.5400     1.8270     1.4170 ha         1 CWP       0.145000
     20 H2           2.3390    -2.1310    -1.2880 h1         1 CWP       0.059700
     21 H3           4.0410    -2.6650    -1.4030 h1         1 CWP       0.059700
     22 H4           3.1010    -2.9890     0.0850 h1         1 CWP       0.059700
     23 H5           7.0830     0.9050     0.8050 hc         1 CWP       0.048033
     24 H6           6.5900     1.7180    -0.6930 hc         1 CWP       0.048033
     25 H7           6.0980     2.3760     0.8760 hc         1 CWP       0.048033
     26 H8           1.2770    -1.3590     1.1370 h1         1 CWP       0.051700
     27 H9           1.2580     0.2590     1.8760 h1         1 CWP       0.051700
     28 H10         -6.3420    -0.6660     1.9680 hc         1 CWP       0.049033
     29 H11         -7.2260    -0.0830     0.5520 hc         1 CWP       0.049033
     30 H12         -6.5920    -1.7360     0.5760 hc         1 CWP       0.049033
     31 H13         -6.0140     0.9100    -1.3480 ha         1 CWP       0.122000
     32 H14         -3.8020     1.6660    -2.3180 ha         1 CWP       0.132000
     33 H15          1.0680     0.8310    -0.8150 hn         1 CWP       0.513000
     34 H16         -1.2060    -1.0140     1.4710 hn         1 CWP       0.364000
     35 C16          3.2700    -2.2730    -0.7280 c3         1 CWP       0.072900
@<TRIPOS>BOND
     1     1    15 1   
     2     1    16 1   
     3     1    17 2   
     4     2     9 ar  
     5     2    16 1   
     6     2    18 ar  
     7     3     4 2   
     8     3     7 1   
     9     3    13 1   
    10     4     5 1   
    11     4    19 1   
    12     5     6 1   
    13     5    14 2   
    14     6    23 1   
    15     6    24 1   
    16     6    25 1   
    17     7    15 1   
    18     7    26 1   
    19     7    27 1   
    20     8    10 1   
    21     8    28 1   
    22     8    29 1   
    23     8    30 1   
    24     9    12 ar  
    25     9    17 1   
    26    10    11 ar  
    27    10    18 ar  
    28    11    12 ar  
    29    11    31 1   
    30    12    32 1   
    31    13    14 1   
    32    13    35 1   
    33    15    33 1   
    34    16    34 1   
    35    20    35 1   
    36    21    35 1   
    37    22    35 1   
@<TRIPOS>SUBSTRUCTURE
     1 CWP         1 TEMP              0 ****  ****    0 ROOT
