@<TRIPOS>MOLECULE
CWQ
   72    76     1     0     0
SMALL
bcc


@<TRIPOS>ATOM
      1 CAA          2.8610     2.7690     2.2330 c3         1 CWQ       0.103600
      2 CAC          1.7170     1.5250     0.4620 c3         1 CWQ       0.103800
      3 CAD          1.6900     1.1980    -1.0310 c3         1 CWQ       0.106000
      4 CAF         -0.2480    -0.1150    -1.7660 c3         1 CWQ       0.086000
      5 CAG         -1.2690     0.2670    -0.6970 c6         1 CWQ      -0.085700
      6 CAH         -1.2810    -0.6910     0.4880 c6         1 CWQ      -0.074400
      7 CAI         -2.3880    -0.3080     1.4600 c6         1 CWQ      -0.077400
      8 CAJ         -3.7310    -0.2130     0.7530 c6         1 CWQ       0.168800
      9 CAL         -4.9360     1.0410    -0.9760 c5         1 CWQ       0.189500
     10 CAM         -5.9110     1.7080     0.0190 c5         1 CWQ      -0.049600
     11 CAN         -6.8730     0.6200     0.3990 ca         1 CWQ      -0.095300
     12 CAO         -7.7780     0.5810     1.4480 ca         1 CWQ      -0.113000
     13 CAP         -8.5750    -0.5470     1.6160 ca         1 CWQ      -0.124500
     14 CAQ         -8.4650    -1.6220     0.7400 ca         1 CWQ      -0.124500
     15 CAR         -7.5570    -1.5810    -0.3140 ca         1 CWQ      -0.113000
     16 CAS         -6.7640    -0.4550    -0.4800 ca         1 CWQ      -0.095300
     17 CAT         -5.7290    -0.1750    -1.5300 c5         1 CWQ      -0.049600
     18 CAU         -2.6590     0.3260    -1.3250 c6         1 CWQ       0.178800
     19 CAV          2.4290     3.8620     0.0870 c3         1 CWQ       0.103600
     20 CAW          1.7440    -1.3060    -1.0730 c          1 CWQ       0.574600
     21 CAX          3.1860    -1.3990    -0.6070 ca         1 CWQ       0.385800
     22 CBA          5.1930    -0.4780     0.0170 ca         1 CWQ       0.375600
     23 CBB          5.7980    -1.7440     0.2070 ca         1 CWQ      -0.099300
     24 CBC          4.9890    -2.8720    -0.0430 ca         1 CWQ      -0.078000
     25 CBD          3.6990    -2.7110    -0.4530 ca         1 CWQ      -0.189300
     26 CBE          5.9780     0.6890     0.2360 ca         1 CWQ       0.063800
     27 CBF          7.2840     0.5760     0.6330 ca         1 CWQ      -0.191000
     28 CBG          7.8630    -0.6930     0.8250 ca         1 CWQ      -0.075000
     29 CBH          7.1430    -1.8370     0.6190 ca         1 CWQ      -0.119000
     30 NAB          2.7200     2.5780     0.7700 nx         1 CWQ      -0.692400
     31 NAE          1.1310    -0.1160    -1.2820 n          1 CWQ      -0.463800
     32 NAK         -3.6600     0.7240    -0.3540 n3         1 CWQ      -0.736600
     33 NAZ          3.9100    -0.3380    -0.3670 nb         1 CWQ      -0.705000
     34 OAY          1.1630    -2.3640    -1.2730 o          1 CWQ      -0.558100
     35 OBI          5.3770     1.8800     0.0240 oh         1 CWQ      -0.545100
     36 H1           3.1340     1.8230     2.6910 hx         1 CWQ       0.093867
     37 H2           3.6360     3.5060     2.4220 hx         1 CWQ       0.093867
     38 H3           1.9160     3.1170     2.6400 hx         1 CWQ       0.093867
     39 H4           0.7500     1.8760     0.8230 hx         1 CWQ       0.099700
     40 H5           1.9980     0.6510     1.0450 hx         1 CWQ       0.099700
     41 H6           1.0620     1.9130    -1.5610 h1         1 CWQ       0.076700
     42 H7           2.6880     1.2790    -1.4540 h1         1 CWQ       0.076700
     43 H8          -0.4820    -1.0960    -2.1710 h1         1 CWQ       0.074200
     44 H9          -0.3000     0.5980    -2.5930 h1         1 CWQ       0.074200
     45 H10         -1.0450     1.2770    -0.3320 hc         1 CWQ       0.035700
     46 H11         -1.4470    -1.7110     0.1240 hc         1 CWQ       0.043200
     47 H12         -0.3170    -0.6960     1.0030 hc         1 CWQ       0.043200
     48 H13         -2.4570    -1.0380     2.2690 hc         1 CWQ       0.044200
     49 H14         -2.1560     0.6580     1.9190 hc         1 CWQ       0.044200
     50 H15         -4.0350    -1.2210     0.4220 h1         1 CWQ       0.048700
     51 H16         -4.4870     0.1220     1.4650 h1         1 CWQ       0.048700
     52 H17         -4.7100     1.7340    -1.7890 h1         1 CWQ       0.058700
     53 H18         -5.3880     2.1460     0.8710 hc         1 CWQ       0.059950
     54 H19         -6.4430     2.5270    -0.4750 hc         1 CWQ       0.059950
     55 H20         -7.8620     1.4140     2.1370 ha         1 CWQ       0.133500
     56 H21         -9.2800    -0.5910     2.4360 ha         1 CWQ       0.135500
     57 H22         -9.0860    -2.4980     0.8820 ha         1 CWQ       0.135500
     58 H23         -7.4710    -2.4220    -0.9920 ha         1 CWQ       0.133500
     59 H24         -6.2110     0.0920    -2.4750 hc         1 CWQ       0.059950
     60 H25         -5.0930    -1.0380    -1.7440 hc         1 CWQ       0.059950
     61 H26         -2.6610     1.0530    -2.1430 h1         1 CWQ       0.035700
     62 H27         -2.8850    -0.6570    -1.7780 h1         1 CWQ       0.035700
     63 H28          2.4220     3.7150    -0.9880 hx         1 CWQ       0.093867
     64 H29          1.4600     4.2290     0.4180 hx         1 CWQ       0.093867
     65 H30          3.2010     4.5820     0.3440 hx         1 CWQ       0.093867
     66 H31          5.4020    -3.8640     0.0910 ha         1 CWQ       0.161000
     67 H32          3.0770    -3.5680    -0.6550 ha         1 CWQ       0.184000
     68 H33          7.8810     1.4650     0.7980 ha         1 CWQ       0.146000
     69 H34          8.8970    -0.7500     1.1400 ha         1 CWQ       0.155000
     70 H35          7.5900    -2.8120     0.7650 ha         1 CWQ       0.158000
     71 H38          6.0050     2.6020     0.1530 ho         1 CWQ       0.442000
     72 H36          3.6310     2.2360     0.4240 hn         1 CWQ       0.487800
@<TRIPOS>BOND
     1     1    30 1   
     2     1    36 1   
     3     1    37 1   
     4     1    38 1   
     5     2     3 1   
     6     2    30 1   
     7     2    39 1   
     8     2    40 1   
     9     3    31 1   
    10     3    41 1   
    11     3    42 1   
    12     4     5 1   
    13     4    31 1   
    14     4    43 1   
    15     4    44 1   
    16     5     6 1   
    17     5    18 1   
    18     5    45 1   
    19     6     7 1   
    20     6    46 1   
    21     6    47 1   
    22     7     8 1   
    23     7    48 1   
    24     7    49 1   
    25     8    32 1   
    26     8    50 1   
    27     8    51 1   
    28     9    10 1   
    29     9    17 1   
    30     9    32 1   
    31     9    52 1   
    32    10    11 1   
    33    10    53 1   
    34    10    54 1   
    35    11    12 ar  
    36    11    16 ar  
    37    12    13 ar  
    38    12    55 1   
    39    13    14 ar  
    40    13    56 1   
    41    14    15 ar  
    42    14    57 1   
    43    15    16 ar  
    44    15    58 1   
    45    16    17 1   
    46    17    59 1   
    47    17    60 1   
    48    18    32 1   
    49    18    61 1   
    50    18    62 1   
    51    19    30 1   
    52    19    63 1   
    53    19    64 1   
    54    19    65 1   
    55    20    21 1   
    56    20    31 1   
    57    20    34 2   
    58    21    25 ar  
    59    21    33 ar  
    60    22    23 ar  
    61    22    26 ar  
    62    22    33 ar  
    63    23    24 ar  
    64    23    29 ar  
    65    24    25 ar  
    66    24    66 1   
    67    25    67 1   
    68    26    27 ar  
    69    26    35 1   
    70    27    28 ar  
    71    27    68 1   
    72    28    29 ar  
    73    28    69 1   
    74    29    70 1   
    75    30    72 1   
    76    35    71 1   
@<TRIPOS>SUBSTRUCTURE
     1 CWQ         1 TEMP              0 ****  ****    0 ROOT
