@<TRIPOS>MOLECULE
CWQ
   72    76     1     0     0
SMALL
No Charge or Current Charge


@<TRIPOS>ATOM
      1 CAA          2.8810     2.8850     2.1470 c3         1 CWQ       0.075400
      2 CAC          1.7200     1.7140     0.2330 c3         1 CWQ       0.075600
      3 CAD          1.7370     1.2990    -1.2520 c3         1 CWQ       0.106000
      4 CAF         -0.3130     0.0190    -1.9380 c3         1 CWQ       0.086000
      5 CAG         -1.3630     0.3320    -0.8330 c6         1 CWQ      -0.085700
      6 CAH         -1.3140    -0.6860     0.3350 c6         1 CWQ      -0.074400
      7 CAI         -2.4000    -0.3510     1.3780 c6         1 CWQ      -0.077400
      8 CAJ         -3.7990    -0.2650     0.7230 c6         1 CWQ       0.168800
      9 CAL         -5.1730     1.0800    -0.9860 c5         1 CWQ       0.189500
     10 CAM         -6.0770     1.6970     0.1610 c5         1 CWQ      -0.049600
     11 CAN         -6.9600     0.5310     0.5300 ca         1 CWQ      -0.095300
     12 CAO         -7.8060     0.4500     1.6480 ca         1 CWQ      -0.095000
     13 CAP         -8.5630    -0.7210     1.8480 ca         1 CWQ      -0.106500
     14 CAQ         -8.4670    -1.7900     0.9330 ca         1 CWQ      -0.106500
     15 CAR         -7.6140    -1.6900    -0.1830 ca         1 CWQ      -0.095000
     16 CAS         -6.8660    -0.5160    -0.3660 ca         1 CWQ      -0.095300
     17 CAT         -5.9070    -0.2340    -1.4950 c5         1 CWQ      -0.049600
     18 CAU         -2.7930     0.3940    -1.4330 c6         1 CWQ       0.178800
     19 CAV          2.8600     3.9660    -0.1470 c3         1 CWQ       0.075400
     20 CAW          1.7900    -1.2730    -1.3240 c          1 CWQ       0.507600
     21 CAX          3.2250    -1.3990    -0.7200 ca         1 CWQ       0.320500
     22 CBA          5.2290    -0.4800     0.1700 ca         1 CWQ       0.245000
     23 CBB          5.7820    -1.7740     0.3460 ca         1 CWQ      -0.034000
     24 CBC          5.0280    -2.8970    -0.0240 ca         1 CWQ      -0.060000
     25 CBD          3.7500    -2.7030    -0.5650 ca         1 CWQ      -0.106000
     26 CBE          6.0330     0.6430     0.5310 ca         1 CWQ       0.129100
     27 CBF          7.3240     0.4590     1.0590 ca         1 CWQ      -0.173000
     28 CBG          7.8430    -0.8320     1.2370 ca         1 CWQ      -0.057000
     29 CBH          7.0740    -1.9470     0.8780 ca         1 CWQ      -0.101000
     30 NAB          2.8570     2.6480     0.6350 nx         1 CWQ      -0.663000
     31 NAE          1.0980    -0.0200    -1.4580 n          1 CWQ      -0.396800
     32 NAK         -3.8250     0.7240    -0.4060 n3         1 CWQ      -0.736600
     33 NAZ          3.9750    -0.3160    -0.3390 nb         1 CWQ      -0.705000
     34 OAY          1.2020    -2.2940    -1.6730 o          1 CWQ      -0.558100
     35 OBI          5.5850     1.9310     0.3630 oh         1 CWQ      -0.584100
     36 H1           2.9480     1.9270     2.6680 hx         1 CWQ       0.093867
     37 H2           3.7460     3.5000     2.4090 hx         1 CWQ       0.093867
     38 H3           1.9660     3.4000     2.4500 hx         1 CWQ       0.093867
     39 H4           0.7620     2.1830     0.4690 hx         1 CWQ       0.099700
     40 H5           1.8090     0.8080     0.8360 hx         1 CWQ       0.099700
     41 H6           1.1980     2.0650    -1.8250 h1         1 CWQ       0.076700
     42 H7           2.7550     1.2950    -1.6570 h1         1 CWQ       0.076700
     43 H8          -0.5870    -0.9300    -2.4160 h1         1 CWQ       0.074200
     44 H9          -0.3960     0.7860    -2.7190 h1         1 CWQ       0.074200
     45 H10         -1.1190     1.3290    -0.4400 hc         1 CWQ       0.035700
     46 H11         -1.4680    -1.7050    -0.0480 hc         1 CWQ       0.043200
     47 H12         -0.3270    -0.6750     0.8170 hc         1 CWQ       0.043200
     48 H13         -2.4080    -1.1120     2.1700 hc         1 CWQ       0.044200
     49 H14         -2.1650     0.6060     1.8650 hc         1 CWQ       0.044200
     50 H15         -4.0820    -1.2660     0.3660 h1         1 CWQ       0.048700
     51 H16         -4.5170     0.0070     1.5080 h1         1 CWQ       0.048700
     52 H17         -5.0510     1.8040    -1.8050 h1         1 CWQ       0.058700
     53 H18         -5.4960     2.0880     1.0040 hc         1 CWQ       0.059950
     54 H19         -6.6750     2.5300    -0.2250 hc         1 CWQ       0.059950
     55 H20         -7.8750     1.2780     2.3510 ha         1 CWQ       0.115500
     56 H21         -9.2220    -0.8000     2.7100 ha         1 CWQ       0.117500
     57 H22         -9.0520    -2.6930     1.0900 ha         1 CWQ       0.117500
     58 H23         -7.5350    -2.5110    -0.8920 ha         1 CWQ       0.115500
     59 H24         -6.4520    -0.0350    -2.4250 hc         1 CWQ       0.059950
     60 H25         -5.2320    -1.0710    -1.6990 hc         1 CWQ       0.059950
     61 H26         -2.8040     1.1540    -2.2280 h1         1 CWQ       0.035700
     62 H27         -3.0210    -0.5700    -1.9100 h1         1 CWQ       0.035700
     63 H28          2.9290     3.7620    -1.2190 hx         1 CWQ       0.093867
     64 H29          1.9380     4.5140     0.0590 hx         1 CWQ       0.093867
     65 H30          3.7160     4.5730     0.1590 hx         1 CWQ       0.093867
     66 H31          5.4260    -3.9030     0.0960 ha         1 CWQ       0.143000
     67 H32          3.1650    -3.5710    -0.8580 ha         1 CWQ       0.166000
     68 H33          7.9330     1.3170     1.3360 ha         1 CWQ       0.128000
     69 H34          8.8420    -0.9680     1.6460 ha         1 CWQ       0.137000
     70 H35          7.4850    -2.9460     1.0100 ha         1 CWQ       0.140000
     71 H38          6.3390     2.5390     0.5280 ho         1 CWQ       0.481000
     72 H36          3.7580     2.1400     0.4000 hn         1 CWQ       0.543000
@<TRIPOS>BOND
     1     1    30 1   
     2     1    36 1   
     3     1    37 1   
     4     1    38 1   
     5     2     3 1   
     6     2    30 1   
     7     2    39 1   
     8     2    40 1   
     9     3    31 1   
    10     3    41 1   
    11     3    42 1   
    12     4     5 1   
    13     4    31 1   
    14     4    43 1   
    15     4    44 1   
    16     5     6 1   
    17     5    18 1   
    18     5    45 1   
    19     6     7 1   
    20     6    46 1   
    21     6    47 1   
    22     7     8 1   
    23     7    48 1   
    24     7    49 1   
    25     8    32 1   
    26     8    50 1   
    27     8    51 1   
    28     9    10 1   
    29     9    17 1   
    30     9    32 1   
    31     9    52 1   
    32    10    11 1   
    33    10    53 1   
    34    10    54 1   
    35    11    12 ar  
    36    11    16 ar  
    37    12    13 ar  
    38    12    55 1   
    39    13    14 ar  
    40    13    56 1   
    41    14    15 ar  
    42    14    57 1   
    43    15    16 ar  
    44    15    58 1   
    45    16    17 1   
    46    17    59 1   
    47    17    60 1   
    48    18    32 1   
    49    18    61 1   
    50    18    62 1   
    51    19    30 1   
    52    19    63 1   
    53    19    64 1   
    54    19    65 1   
    55    20    21 1   
    56    20    31 1   
    57    20    34 2   
    58    21    25 ar  
    59    21    33 ar  
    60    22    23 ar  
    61    22    26 ar  
    62    22    33 ar  
    63    23    24 ar  
    64    23    29 ar  
    65    24    25 ar  
    66    24    66 1   
    67    25    67 1   
    68    26    27 ar  
    69    26    35 1   
    70    27    28 ar  
    71    27    68 1   
    72    28    29 ar  
    73    28    69 1   
    74    29    70 1   
    75    30    72 1   
    76    35    71 1   
@<TRIPOS>SUBSTRUCTURE
     1 CWQ         1 TEMP              0 ****  ****    0 ROOT
