@<TRIPOS>MOLECULE
CWR
   18    18     1     0     0
SMALL
bcc


@<TRIPOS>ATOM
      1 C1          -0.5740    -1.5950     0.2970 c5         1 CWR       0.240200
      2 N2          -1.9110    -1.3440    -0.1710 n2         1 CWR      -0.576900
      3 N3          -0.0370    -0.3180     0.6810 n          1 CWR      -0.436800
      4 C2          -0.9080     0.6530     0.3750 c          1 CWR       0.575200
      5 O2          -0.7710     1.8610     0.4840 o          1 CWR      -0.638500
      6 CA2         -2.1110    -0.0900    -0.1270 ce         1 CWR       0.347300
      7 CA3          1.3500    -0.1050     0.9780 c3         1 CWR      -0.049000
      8 C3           2.2470    -0.0090    -0.2810 c          1 CWR       0.919600
      9 O3           1.6850    -0.0660    -1.3860 o          1 CWR      -0.827800
     10 CB2         -3.3580     0.6040    -0.5230 c3         1 CWR      -0.110400
     11 OXT          3.4610     0.1240    -0.0410 o          1 CWR      -0.827800
     12 H11         -0.5980    -2.2930     1.1390 h2         1 CWR       0.079700
     13 H12          0.0190    -2.0520    -0.4990 h2         1 CWR       0.079700
     14 HA31         1.4440     0.8180     1.5540 h1         1 CWR       0.041700
     15 HA32         1.7060    -0.9100     1.6250 h1         1 CWR       0.041700
     16 HB21        -3.7750     1.1500     0.3250 hc         1 CWR       0.047367
     17 HB22        -3.1550     1.3380    -1.3030 hc         1 CWR       0.047367
     18 HB23        -4.1030    -0.1010    -0.8860 hc         1 CWR       0.047367
@<TRIPOS>BOND
     1     1     2 1   
     2     1     3 1   
     3     1    12 1   
     4     1    13 1   
     5     2     6 2   
     6     3     4 1   
     7     3     7 1   
     8     4     5 2   
     9     4     6 1   
    10     6    10 1   
    11     7     8 1   
    12     7    14 1   
    13     7    15 1   
    14     8     9 1   
    15     8    11 1   
    16    10    16 1   
    17    10    17 1   
    18    10    18 1   
@<TRIPOS>SUBSTRUCTURE
     1 CWR         1 TEMP              0 ****  ****    0 ROOT
