@<TRIPOS>MOLECULE
CWR
   18    18     1     0     0
SMALL
No Charge or Current Charge


@<TRIPOS>ATOM
      1 C1          -0.4180    -1.2600    -0.5820 c5         1 CWR       0.240200
      2 N2          -1.9040    -1.0520    -0.7580 n2         1 CWR      -0.576900
      3 N3           0.0270    -0.1240     0.2430 n          1 CWR      -0.369800
      4 C2          -1.0430     0.6870     0.5420 c          1 CWR       0.432700
      5 O2          -1.0010     1.7150     1.2140 o          1 CWR      -0.563000
      6 CA2         -2.2140     0.0420    -0.1170 ce         1 CWR       0.347300
      7 CA3          1.4130     0.1530     0.7100 c3         1 CWR      -0.049000
      8 C3           2.4840    -0.8770     0.2700 c          1 CWR       0.709000
      9 O3           2.6850    -1.8460     0.9880 o          1 CWR      -0.722500
     10 CB2         -3.6080     0.6310    -0.0290 c3         1 CWR      -0.110400
     11 OXT          3.0570    -0.6960    -0.7950 o          1 CWR      -0.722500
     12 H11         -0.1970    -2.1810    -0.0270 h2         1 CWR       0.079700
     13 H12          0.1180    -1.2060    -1.5390 h2         1 CWR       0.079700
     14 HA31         1.7200     1.1390     0.3400 h1         1 CWR       0.041700
     15 HA32         1.4140     0.1940     1.8070 h1         1 CWR       0.041700
     16 HB21        -4.3020    -0.0770     0.4400 hc         1 CWR       0.047367
     17 HB22        -3.6250     1.5530     0.5620 hc         1 CWR       0.047367
     18 HB23        -3.9960     0.8690    -1.0260 hc         1 CWR       0.047367
@<TRIPOS>BOND
     1     1     2 1   
     2     1     3 1   
     3     1    12 1   
     4     1    13 1   
     5     2     6 2   
     6     3     4 1   
     7     3     7 1   
     8     4     5 2   
     9     4     6 1   
    10     6    10 1   
    11     7     8 1   
    12     7    14 1   
    13     7    15 1   
    14     8     9 1   
    15     8    11 1   
    16    10    16 1   
    17    10    17 1   
    18    10    18 1   
@<TRIPOS>SUBSTRUCTURE
     1 CWR         1 TEMP              0 ****  ****    0 ROOT
