@<TRIPOS>MOLECULE
CWS
   21    22     1     0     0
SMALL
abcg2


@<TRIPOS>ATOM
      1 N1          -1.4290    -1.7080     0.0620 nb         1 CWS      -0.213000
      2 C2          -2.4970    -0.9620     0.0290 ca         1 CWS       0.171900
      3 N3          -2.5700     0.3730    -0.0240 nb         1 CWS      -0.298000
      4 C4          -1.4330     1.0500    -0.0440 ca         1 CWS       0.410900
      5 C5           1.0840     1.0020    -0.0130 ca         1 CWS      -0.073000
      6 C6           2.2540     0.2800     0.0210 ca         1 CWS      -0.092300
      7 C7           2.1690    -1.1290     0.0680 ca         1 CWS      -0.082000
      8 C8           0.9620    -1.7750     0.0810 ca         1 CWS      -0.097000
      9 C4A         -0.1700     0.3630    -0.0040 ca         1 CWS      -0.178000
     10 C8A         -0.2420    -1.0420     0.0460 ca         1 CWS       0.052000
     11 C11          3.5950     0.9490     0.0090 c3         1 CWS      -0.045800
     12 NA4         -1.5040     2.3810    -0.0990 nv         1 CWS      -1.078900
     13 H2          -3.4540    -1.4760     0.0450 h5         1 CWS       0.043100
     14 HA41        -2.4050     2.8240    -0.1600 hn         1 CWS       0.500000
     15 HA42        -0.6950     2.9690    -0.1710 hn         1 CWS       0.500000
     16 H5           1.1520     2.0830    -0.0450 ha         1 CWS       0.102000
     17 H7           3.0820    -1.7110     0.0960 ha         1 CWS       0.115000
     18 H111         4.1780     0.6790     0.8910 hc         1 CWS       0.043033
     19 H112         4.1780     0.6450    -0.8620 hc         1 CWS       0.043033
     20 H113         3.5010     2.0340    -0.0130 hc         1 CWS       0.043033
     21 H8           0.9100    -2.8550     0.1180 ha         1 CWS       0.134000
@<TRIPOS>BOND
     1     1     2 ar  
     2     1    10 ar  
     3     2     3 ar  
     4     2    13 1   
     5     3     4 ar  
     6     4     9 ar  
     7     4    12 1   
     8     5     6 ar  
     9     5     9 ar  
    10     5    16 1   
    11     6     7 ar  
    12     6    11 1   
    13     7     8 ar  
    14     7    17 1   
    15     8    10 ar  
    16     8    21 1   
    17     9    10 ar  
    18    11    18 1   
    19    11    19 1   
    20    11    20 1   
    21    12    14 1   
    22    12    15 1   
@<TRIPOS>SUBSTRUCTURE
     1 CWS         1 TEMP              0 ****  ****    0 ROOT
