@<TRIPOS>MOLECULE
CWS
   21    22     1     0     0
SMALL
No Charge or Current Charge


@<TRIPOS>ATOM
      1 N1          -1.4320    -1.7000     0.0170 nb         1 CWS      -0.213000
      2 C2          -2.5420    -0.9330     0.0340 ca         1 CWS       0.171900
      3 N3          -2.5880     0.4130     0.0470 nb         1 CWS      -0.298000
      4 C4          -1.4090     1.0450     0.0440 ca         1 CWS       0.410900
      5 C5           1.0750     1.0030     0.0300 ca         1 CWS      -0.073000
      6 C6           2.2670     0.2540     0.0120 ca         1 CWS      -0.092300
      7 C7           2.2030    -1.1500    -0.0020 ca         1 CWS      -0.082000
      8 C8           0.9580    -1.8030    -0.0020 ca         1 CWS      -0.097000
      9 C4A         -0.1790     0.3490     0.0280 ca         1 CWS      -0.178000
     10 C8A         -0.2400    -1.0670     0.0140 ca         1 CWS       0.052000
     11 C11          3.6150     0.9600     0.0180 c3         1 CWS      -0.045800
     12 NA4         -1.5110     2.4020     0.0480 nv         1 CWS      -1.078900
     13 H2          -3.4970    -1.4560     0.0360 h5         1 CWS       0.043100
     14 HA41        -2.4240     2.8080    -0.1470 hn         1 CWS       0.500000
     15 HA42        -0.7060     2.9560    -0.2310 hn         1 CWS       0.500000
     16 H5           1.1370     2.0880     0.0490 ha         1 CWS       0.102000
     17 H7           3.1170    -1.7400    -0.0120 ha         1 CWS       0.115000
     18 H111         3.9340     1.1840     1.0430 hc         1 CWS       0.043033
     19 H112         4.3930     0.3450    -0.4490 hc         1 CWS       0.043033
     20 H113         3.5710     1.9070    -0.5340 hc         1 CWS       0.043033
     21 H8           0.9240    -2.8900    -0.0120 ha         1 CWS       0.134000
@<TRIPOS>BOND
     1     1     2 ar  
     2     1    10 ar  
     3     2     3 ar  
     4     2    13 1   
     5     3     4 ar  
     6     4     9 ar  
     7     4    12 1   
     8     5     6 ar  
     9     5     9 ar  
    10     5    16 1   
    11     6     7 ar  
    12     6    11 1   
    13     7     8 ar  
    14     7    17 1   
    15     8    10 ar  
    16     8    21 1   
    17     9    10 ar  
    18    11    18 1   
    19    11    19 1   
    20    11    20 1   
    21    12    14 1   
    22    12    15 1   
@<TRIPOS>SUBSTRUCTURE
     1 CWS         1 TEMP              0 ****  ****    0 ROOT
