@<TRIPOS>MOLECULE
CWT
   38    40     1     0     0
SMALL
No Charge or Current Charge


@<TRIPOS>ATOM
      1 CAA          1.9570     3.4080     1.1180 c3         1 CWT      -0.111600
      2 CAE          3.2380     3.7610    -1.0660 c3         1 CWT      -0.111600
      3 CAF          2.3410     2.8130    -0.2490 c3         1 CWT       0.247500
      4 NAG          3.0430     1.5430    -0.0480 nu         1 CWT      -0.898400
      5 CAH          2.4890     0.3070     0.0160 cc         1 CWT       0.691800
      6 NAI          1.1870     0.1140    -0.1230 nd         1 CWT      -0.695300
      7 CAJ          1.1090    -1.2700     0.0230 cd         1 CWT       0.028400
      8 CAK          2.4260    -1.9040     0.2580 c          1 CWT       0.543200
      9 NAL          3.2490    -0.8090     0.2360 n          1 CWT      -0.383300
     10 OAM          2.7280    -3.0780     0.4310 o          1 CWT      -0.509000
     11 CAN         -0.0880    -1.9580    -0.0380 ce         1 CWT      -0.086200
     12 CAO         -1.5000    -1.4720    -0.1120 ca         1 CWT      -0.059800
     13 CAP         -1.8830    -0.2030     0.3910 ca         1 CWT      -0.060000
     14 CAQ         -3.2290     0.1750     0.2950 ca         1 CWT       0.036100
     15 CAR         -4.1690    -0.6470    -0.2580 ca         1 CWT       0.063100
     16 CAS         -3.8360    -1.9120    -0.7530 ca         1 CWT      -0.108000
     17 CAT         -2.4870    -2.3220    -0.6740 ca         1 CWT      -0.095000
     18 C21          4.7110    -0.8730     0.4260 c3         1 CWT       0.094300
     19 OAU         -3.7600     1.3440     0.7380 os         1 CWT      -0.347100
     20 CAV         -5.1680     1.2380     0.3200 c5         1 CWT       0.374600
     21 OAW         -5.4110    -0.1020    -0.2380 os         1 CWT      -0.345100
     22 HAA1         1.4210     4.3560     0.9860 hc         1 CWT       0.044867
     23 HAA2         1.3010     2.7220     1.6670 hc         1 CWT       0.044867
     24 HAA3         2.8470     3.5980     1.7290 hc         1 CWT       0.044867
     25 HAF          1.4170     2.6500    -0.8240 h1         1 CWT       0.084700
     26 HAE1         4.1730     3.9760    -0.5350 hc         1 CWT       0.044867
     27 HAE2         3.4840     3.3170    -2.0380 hc         1 CWT       0.044867
     28 HAE3         2.7220     4.7110    -1.2500 hc         1 CWT       0.044867
     29 HAG          4.0480     1.5610     0.0890 hn         1 CWT       0.495000
     30 HAN          0.0110    -3.0420     0.0270 ha         1 CWT       0.191000
     31 H211         4.9950    -0.2900     1.3110 h1         1 CWT       0.049700
     32 H212         5.0360    -1.9110     0.5680 h1         1 CWT       0.049700
     33 H213         5.2170    -0.4630    -0.4570 h1         1 CWT       0.049700
     34 HAP         -1.1670     0.4660     0.8560 ha         1 CWT       0.165000
     35 HAT         -2.2070    -3.3010    -1.0550 ha         1 CWT       0.118000
     36 HAS         -4.5960    -2.5600    -1.1830 ha         1 CWT       0.133000
     37 HAV1        -5.8230     1.4040     1.1840 h2         1 CWT       0.061700
     38 HAV2        -5.3680     1.9890    -0.4530 h2         1 CWT       0.061700
@<TRIPOS>BOND
     1     1     3 1   
     2     1    22 1   
     3     1    23 1   
     4     1    24 1   
     5     2     3 1   
     6     2    26 1   
     7     2    27 1   
     8     2    28 1   
     9     3     4 1   
    10     3    25 1   
    11     4     5 1   
    12     4    29 1   
    13     5     6 2   
    14     5     9 1   
    15     6     7 1   
    16     7     8 1   
    17     7    11 2   
    18     8     9 1   
    19     8    10 2   
    20     9    18 1   
    21    11    12 1   
    22    11    30 1   
    23    12    13 ar  
    24    12    17 ar  
    25    13    14 ar  
    26    13    34 1   
    27    14    15 ar  
    28    14    19 1   
    29    15    16 ar  
    30    15    21 1   
    31    16    17 ar  
    32    16    36 1   
    33    17    35 1   
    34    18    31 1   
    35    18    32 1   
    36    18    33 1   
    37    19    20 1   
    38    20    21 1   
    39    20    37 1   
    40    20    38 1   
@<TRIPOS>SUBSTRUCTURE
     1 CWT         1 TEMP              0 ****  ****    0 ROOT
