@<TRIPOS>MOLECULE
CWT
   38    40     1     0     0
SMALL
abcg2


@<TRIPOS>ATOM
      1 CAA          1.9370     3.1930     1.3610 c3         1 CWT      -0.111600
      2 CAE          3.1680     3.8780    -0.7350 c3         1 CWT      -0.111600
      3 CAF          2.3370     2.8010    -0.0560 c3         1 CWT       0.247500
      4 NAG          3.0850     1.5500    -0.0680 nu         1 CWT      -0.898400
      5 CAH          2.4900     0.3630    -0.0160 cc         1 CWT       0.691800
      6 NAI          1.2010     0.1620    -0.0290 nd         1 CWT      -0.695300
      7 CAJ          1.0340    -1.2060     0.0050 cd         1 CWT       0.028400
      8 CAK          2.3700    -1.8600     0.0470 c          1 CWT       0.543200
      9 NAL          3.2420    -0.7980     0.0350 n          1 CWT      -0.383300
     10 OAM          2.6730    -3.0340     0.0820 o          1 CWT      -0.509000
     11 CAN         -0.1080    -1.9230     0.0080 ce         1 CWT      -0.086200
     12 CAO         -1.4760    -1.4440    -0.0210 ca         1 CWT      -0.059800
     13 CAP         -1.8050    -0.0690    -0.0270 ca         1 CWT      -0.060000
     14 CAQ         -3.1340     0.2570    -0.0530 ca         1 CWT       0.036100
     15 CAR         -4.1390    -0.7000    -0.0740 ca         1 CWT       0.063100
     16 CAS         -3.8520    -2.0430    -0.0670 ca         1 CWT      -0.108000
     17 CAT         -2.5020    -2.3960    -0.0390 ca         1 CWT      -0.095000
     18 C21          4.6810    -0.8840     0.0520 c3         1 CWT       0.094300
     19 OAU         -3.6950     1.4920    -0.0430 os         1 CWT      -0.347100
     20 CAV         -5.0910     1.3040    -0.2190 c5         1 CWT       0.374600
     21 OAW         -5.3450    -0.0900    -0.0800 os         1 CWT      -0.345100
     22 HAA1         1.3510     4.1130     1.3480 hc         1 CWT       0.044867
     23 HAA2         1.3310     2.4150     1.8250 hc         1 CWT       0.044867
     24 HAA3         2.8170     3.3640     1.9830 hc         1 CWT       0.044867
     25 HAF          1.4320     2.6330    -0.6420 h1         1 CWT       0.084700
     26 HAE1         4.0850     4.0840    -0.1790 hc         1 CWT       0.044867
     27 HAE2         3.4400     3.5880    -1.7500 hc         1 CWT       0.044867
     28 HAE3         2.6010     4.8070    -0.7900 hc         1 CWT       0.044867
     29 HAG          4.0850     1.6020     0.0430 hn         1 CWT       0.495000
     30 HAN          0.0120    -3.0010     0.0350 ha         1 CWT       0.191000
     31 H211         5.0910    -0.3960     0.9370 h1         1 CWT       0.049700
     32 H212         4.9650    -1.9320     0.0770 h1         1 CWT       0.049700
     33 H213         5.1110    -0.4310    -0.8400 h1         1 CWT       0.049700
     34 HAP         -1.0320     0.6860    -0.0090 ha         1 CWT       0.165000
     35 HAT         -2.2430    -3.4470    -0.0350 ha         1 CWT       0.118000
     36 HAS         -4.6290    -2.7940    -0.0800 ha         1 CWT       0.133000
     37 HAV1        -5.6390     1.8550     0.5460 h2         1 CWT       0.061700
     38 HAV2        -5.3900     1.6360    -1.2180 h2         1 CWT       0.061700
@<TRIPOS>BOND
     1     1     3 1   
     2     1    22 1   
     3     1    23 1   
     4     1    24 1   
     5     2     3 1   
     6     2    26 1   
     7     2    27 1   
     8     2    28 1   
     9     3     4 1   
    10     3    25 1   
    11     4     5 1   
    12     4    29 1   
    13     5     6 2   
    14     5     9 1   
    15     6     7 1   
    16     7     8 1   
    17     7    11 2   
    18     8     9 1   
    19     8    10 2   
    20     9    18 1   
    21    11    12 1   
    22    11    30 1   
    23    12    13 ar  
    24    12    17 ar  
    25    13    14 ar  
    26    13    34 1   
    27    14    15 ar  
    28    14    19 1   
    29    15    16 ar  
    30    15    21 1   
    31    16    17 ar  
    32    16    36 1   
    33    17    35 1   
    34    18    31 1   
    35    18    32 1   
    36    18    33 1   
    37    19    20 1   
    38    20    21 1   
    39    20    37 1   
    40    20    38 1   
@<TRIPOS>SUBSTRUCTURE
     1 CWT         1 TEMP              0 ****  ****    0 ROOT
