@<TRIPOS>MOLECULE
CWW
   43    45     1     0     0
SMALL
abcg2


@<TRIPOS>ATOM
      1 CAW         60.9570    26.2960    62.2220 cc         1 CWW      -0.096000
      2 CAV         60.8460    24.9560    62.5020 cd         1 CWW      -0.146900
      3 BR          60.3070    23.5950    61.3180 br         1 CWW      -0.050100
      4 CAU         61.2140    24.8080    63.8560 cd         1 CWW       0.293900
      5 NAT         61.5280    25.9810    64.3810 nc         1 CWW      -0.506800
      6 NAS         61.3650    26.8820    63.3800 na         1 CWW       0.201000
      7 CAR         61.6510    28.2460    63.5980 ca         1 CWW       0.132800
      8 CAQ         62.2620    28.9710    62.5930 ca         1 CWW      -0.214000
      9 CAP         62.5670    30.3150    62.8410 ca         1 CWW       0.532900
     10 NAY         63.1650    31.1570    61.9240 ns         1 CWW      -0.337900
     11 CAZ         63.5760    30.8790    60.6240 c          1 CWW       0.670100
     12 OBB         63.4610    29.7680    60.1110 o          1 CWW      -0.622100
     13 NBA         64.1200    31.9470    59.9960 ns         1 CWW      -0.519900
     14 CBC         64.5870    31.9080    58.6180 c3         1 CWW       0.113000
     15 CBD         65.8760    32.7000    58.4520 c3         1 CWW      -0.112100
     16 NAO         62.3140    30.9000    64.0190 nb         1 CWW      -0.745000
     17 CAN         61.7330    30.1770    64.9710 ca         1 CWW       0.410900
     18 CAM         61.3540    28.8480    64.8270 ca         1 CWW      -0.241600
     19 CAK         60.5260    28.1880    65.8870 c          1 CWW       0.647700
     20 OAL         59.3880    27.8000    65.6560 o          1 CWW      -0.565100
     21 NAH         61.1280    28.1310    67.1060 ns         1 CWW      -0.134000
     22 CAE         60.6080    27.6450    68.3130 ca         1 CWW      -0.071000
     23 CAF         59.2760    27.2820    68.5150 ca         1 CWW      -0.097000
     24 CAA         58.9060    26.8260    69.7730 ca         1 CWW      -0.135000
     25 CAB         59.8560    26.7440    70.7810 ca         1 CWW       0.302900
     26 NAC         61.1340    27.0940    70.5950 nb         1 CWW      -0.642000
     27 CAD         61.4920    27.5310    69.3930 ca         1 CWW       0.285900
     28 H1          60.7620    26.8580    61.3250 h4         1 CWW       0.177000
     29 H2          61.2640    23.9060    64.4440 h4         1 CWW       0.055100
     30 H3          62.5350    28.5170    61.6560 ha         1 CWW       0.176000
     31 H4          63.3340    32.0840    62.2890 hn         1 CWW       0.166000
     32 H5          64.1040    32.8460    60.4530 hn         1 CWW       0.312500
     33 H6          63.8140    32.3030    57.9520 h1         1 CWW       0.059200
     34 H7          64.7390    30.8620    58.3570 h1         1 CWW       0.059200
     35 H8          66.1940    32.6800    57.4080 hc         1 CWW       0.045033
     36 H9          65.7350    33.7440    58.7420 hc         1 CWW       0.045033
     37 H10         66.6740    32.2770    59.0660 hc         1 CWW       0.045033
     38 H11         61.5280    30.6910    65.9040 h4         1 CWW       0.031100
     39 H12         62.0980    28.4100    67.1340 hn         1 CWW       0.158000
     40 H13         58.5610    27.3540    67.7140 ha         1 CWW       0.154000
     41 H14         57.8810    26.5360    69.9660 ha         1 CWW       0.125000
     42 H15         59.5870    26.3870    71.7690 h4         1 CWW       0.022100
     43 H16         62.5330    27.8130    69.2610 h4         1 CWW       0.014100
@<TRIPOS>BOND
     1     1     2 2   
     2     1     6 1   
     3     1    28 1   
     4     2     3 1   
     5     2     4 1   
     6     4     5 2   
     7     4    29 1   
     8     5     6 1   
     9     6     7 1   
    10     7     8 ar  
    11     7    18 ar  
    12     8     9 ar  
    13     8    30 1   
    14     9    10 1   
    15     9    16 ar  
    16    10    11 1   
    17    10    31 1   
    18    11    12 2   
    19    11    13 1   
    20    13    14 1   
    21    13    32 1   
    22    14    15 1   
    23    14    33 1   
    24    14    34 1   
    25    15    35 1   
    26    15    36 1   
    27    15    37 1   
    28    16    17 ar  
    29    17    18 ar  
    30    17    38 1   
    31    18    19 1   
    32    19    20 2   
    33    19    21 1   
    34    21    22 1   
    35    21    39 1   
    36    22    23 ar  
    37    22    27 ar  
    38    23    24 ar  
    39    23    40 1   
    40    24    25 ar  
    41    24    41 1   
    42    25    26 ar  
    43    25    42 1   
    44    26    27 ar  
    45    27    43 1   
@<TRIPOS>SUBSTRUCTURE
     1 CWW         1 TEMP              0 ****  ****    0 ROOT
