@<TRIPOS>MOLECULE
CWW
   43    45     1     0     0
SMALL
No Charge or Current Charge


@<TRIPOS>ATOM
      1 CAW         60.1230    26.3770    62.3500 cc         1 CWW      -0.096000
      2 CAV         60.1500    25.0130    62.2780 cd         1 CWW      -0.146900
      3 Br          58.9390    23.9160    61.3370 br         1 CWW      -0.050100
      4 CAU         61.2640    24.5640    63.0350 cd         1 CWW       0.293900
      5 NAT         61.9500    25.5550    63.5800 nc         1 CWW      -0.506800
      6 NAS         61.2130    26.6420    63.1650 na         1 CWW       0.201000
      7 CAR         61.6410    27.9370    63.4730 ca         1 CWW       0.132800
      8 CAQ         62.3320    28.6660    62.4920 ca         1 CWW      -0.214000
      9 CAP         62.8110    29.9440    62.8030 ca         1 CWW       0.532900
     10 NAY         63.5180    30.7890    61.9460 ns         1 CWW      -0.337900
     11 CAZ         63.7590    30.7020    60.6030 c          1 CWW       0.670100
     12 OBB         63.3510    29.8110    59.8760 o          1 CWW      -0.622100
     13 NBA         64.5180    31.7450    60.1410 ns         1 CWW      -0.519900
     14 CBC         64.9240    31.9080    58.7450 c3         1 CWW       0.113000
     15 CBD         65.7810    33.1700    58.5530 c3         1 CWW      -0.112100
     16 NAO         62.6500    30.5120    64.0070 nb         1 CWW      -0.745000
     17 CAN         61.9850    29.8160    64.9530 ca         1 CWW       0.410900
     18 CAM         61.4550    28.5310    64.7460 ca         1 CWW      -0.241600
     19 CAK         60.6990    27.8510    65.8620 c          1 CWW       0.647700
     20 OAL         59.8330    27.0160    65.6360 o          1 CWW      -0.565100
     21 NAH         61.0070    28.2860    67.1490 ns         1 CWW      -0.134000
     22 CAE         60.5100    27.9110    68.4330 ca         1 CWW      -0.071000
     23 CAF         59.5860    26.8640    68.6470 ca         1 CWW      -0.097000
     24 CAA         59.1760    26.5920    69.9640 ca         1 CWW      -0.135000
     25 CAB         59.6930    27.3600    71.0210 ca         1 CWW       0.302900
     26 NAC         60.5800    28.3630    70.8310 nb         1 CWW      -0.642000
     27 CAD         60.9740    28.6230    69.5620 ca         1 CWW       0.285900
     28 H1          59.4710    27.1330    61.9310 h4         1 CWW       0.177000
     29 H2          61.5920    23.5430    63.1900 h4         1 CWW       0.055100
     30 H3          62.5040    28.2260    61.5170 ha         1 CWW       0.176000
     31 H4          63.9000    31.6010    62.4080 hn         1 CWW       0.166000
     32 H5          64.8100    32.4390    60.8170 hn         1 CWW       0.312500
     33 H6          64.0260    31.9750    58.1170 h1         1 CWW       0.059200
     34 H7          65.4980    31.0250    58.4340 h1         1 CWW       0.059200
     35 H8          66.0740    33.2720    57.5010 hc         1 CWW       0.045033
     36 H9          65.2200    34.0670    58.8420 hc         1 CWW       0.045033
     37 H10         66.6920    33.1160    59.1600 hc         1 CWW       0.045033
     38 H11         61.8640    30.3360    65.9030 h4         1 CWW       0.031100
     39 H12         61.7340    28.9880    67.1860 hn         1 CWW       0.158000
     40 H13         59.1880    26.2620    67.8350 ha         1 CWW       0.154000
     41 H14         58.4670    25.7950    70.1710 ha         1 CWW       0.125000
     42 H15         59.3900    27.1660    72.0490 h4         1 CWW       0.022100
     43 H16         61.6890    29.4370    69.4450 h4         1 CWW       0.014100
@<TRIPOS>BOND
     1     1     2 2   
     2     1     6 1   
     3     1    28 1   
     4     2     3 1   
     5     2     4 1   
     6     4     5 2   
     7     4    29 1   
     8     5     6 1   
     9     6     7 1   
    10     7     8 ar  
    11     7    18 ar  
    12     8     9 ar  
    13     8    30 1   
    14     9    10 1   
    15     9    16 ar  
    16    10    11 1   
    17    10    31 1   
    18    11    12 2   
    19    11    13 1   
    20    13    14 1   
    21    13    32 1   
    22    14    15 1   
    23    14    33 1   
    24    14    34 1   
    25    15    35 1   
    26    15    36 1   
    27    15    37 1   
    28    16    17 ar  
    29    17    18 ar  
    30    17    38 1   
    31    18    19 1   
    32    19    20 2   
    33    19    21 1   
    34    21    22 1   
    35    21    39 1   
    36    22    23 ar  
    37    22    27 ar  
    38    23    24 ar  
    39    23    40 1   
    40    24    25 ar  
    41    24    41 1   
    42    25    26 ar  
    43    25    42 1   
    44    26    27 ar  
    45    27    43 1   
@<TRIPOS>SUBSTRUCTURE
     1 CWW         1 TEMP              0 ****  ****    0 ROOT
