@<TRIPOS>MOLECULE
CWX
   52    54     1     0     0
SMALL
abcg2


@<TRIPOS>ATOM
      1 CAR          7.4610     2.0760     0.6140 c3         1 CWX       0.181100
      2 NAQ          7.6410     1.0430    -0.3970 n7         1 CWX      -0.861300
      3 SAN          6.9630    -0.4340    -0.1480 sy         1 CWX       1.147600
      4 OAO          7.2920    -1.2340    -1.3160 o          1 CWX      -0.533500
      5 OAP          7.3770    -0.8690     1.1770 o          1 CWX      -0.533500
      6 CAK          5.2080    -0.2050    -0.1180 ca         1 CWX      -0.316500
      7 CAJ          4.5000    -0.2260    -1.3130 ca         1 CWX      -0.014500
      8 CAI          3.1330    -0.0170    -1.2950 ca         1 CWX      -0.128000
      9 CAL          4.5570     0.0240     1.0870 ca         1 CWX      -0.014500
     10 CAM          3.1880     0.2320     1.0910 ca         1 CWX      -0.128000
     11 CAH          2.4530     0.2110    -0.0960 cp         1 CWX       0.038000
     12 CAE          0.9940     0.4160    -0.0910 cp         1 CWX      -0.091000
     13 CAD          0.3870     1.3100     0.7950 ca         1 CWX      -0.058500
     14 CAC         -0.9800     1.5080     0.7860 ca         1 CWX      -0.161500
     15 CAF          0.1710    -0.2810    -0.9730 ca         1 CWX      -0.058500
     16 CAG         -1.2050    -0.1060    -0.9840 ca         1 CWX      -0.161500
     17 CAB         -1.7880     0.8070    -0.1090 ca         1 CWX       0.155100
     18 O1          -3.1100     1.0870    -0.0540 os         1 CWX      -0.384100
     19 C1          -3.9870     0.5340    -1.0080 c6         1 CWX       0.357300
     20 O5          -4.1740    -0.8260    -0.8240 os         1 CWX      -0.444000
     21 C5          -4.7740    -1.2160     0.4030 c6         1 CWX       0.171300
     22 C6          -4.8880    -2.7250     0.3790 c3         1 CWX       0.169600
     23 O6          -3.5930    -3.2770     0.3450 oh         1 CWX      -0.712000
     24 C4          -6.1370    -0.5440     0.5700 c6         1 CWX       0.146300
     25 O4          -6.6200    -0.8780     1.8490 oh         1 CWX      -0.721000
     26 C3          -5.9900     0.9660     0.4170 c6         1 CWX       0.142300
     27 O3          -7.2760     1.5310     0.5140 oh         1 CWX      -0.650000
     28 C2          -5.3040     1.3100    -0.9020 c6         1 CWX       0.124300
     29 O2          -6.1530     0.9390    -1.9560 oh         1 CWX      -0.688000
     30 H21          8.0150     2.9530     0.2870 h1         1 CWX       0.050700
     31 H22          6.4170     2.3660     0.7600 h1         1 CWX       0.050700
     32 H31          0.6010    -1.0050    -1.6530 ha         1 CWX       0.117000
     33 H32         -1.7950    -0.7010    -1.6650 ha         1 CWX       0.132000
     34 HO3         -7.1910     2.4500     0.7830 ho         1 CWX       0.448000
     35 H2          -5.0790     2.3850    -0.9290 h1         1 CWX       0.050700
     36 HAR          7.8770     1.7490     1.5620 h1         1 CWX       0.050700
     37 HAQ          7.5000     1.3660    -1.3480 hn         1 CWX       0.479000
     38 HAJ          5.0000    -0.4040    -2.2560 ha         1 CWX       0.134000
     39 HAL          5.1000     0.0240     2.0230 ha         1 CWX       0.134000
     40 HAI          2.5920    -0.0180    -2.2320 ha         1 CWX       0.120500
     41 HAM          2.6860     0.3840     2.0380 ha         1 CWX       0.120500
     42 HAD          0.9910     1.8830     1.4870 ha         1 CWX       0.117000
     43 HAC         -1.4310     2.2200     1.4650 ha         1 CWX       0.132000
     44 H1          -3.5670     0.6500    -2.0150 h2         1 CWX       0.077700
     45 H5          -4.1360    -0.9270     1.2510 h1         1 CWX       0.072700
     46 H61         -5.4400    -3.0430     1.2700 h1         1 CWX       0.037700
     47 H62         -5.4840    -3.0240    -0.4950 h1         1 CWX       0.037700
     48 H4          -6.8120    -0.9180    -0.2140 h1         1 CWX       0.070700
     49 HO6         -3.6790    -4.2340     0.3780 ho         1 CWX       0.504000
     50 HO4         -7.4640    -0.4310     1.9720 ho         1 CWX       0.523000
     51 H3          -5.3490     1.3250     1.2340 h1         1 CWX       0.060700
     52 HO2         -5.8310     1.3400    -2.7690 ho         1 CWX       0.505000
@<TRIPOS>BOND
     1     1     2 1   
     2     1    30 1   
     3     1    31 1   
     4     1    36 1   
     5     2     3 1   
     6     2    37 1   
     7     3     4 2   
     8     3     5 2   
     9     3     6 1   
    10     6     7 ar  
    11     6     9 ar  
    12     7     8 ar  
    13     7    38 1   
    14     8    11 ar  
    15     8    40 1   
    16     9    10 ar  
    17     9    39 1   
    18    10    11 ar  
    19    10    41 1   
    20    11    12 1   
    21    12    13 ar  
    22    12    15 ar  
    23    13    14 ar  
    24    13    42 1   
    25    14    17 ar  
    26    14    43 1   
    27    15    16 ar  
    28    15    32 1   
    29    16    17 ar  
    30    16    33 1   
    31    17    18 1   
    32    18    19 1   
    33    19    20 1   
    34    19    28 1   
    35    19    44 1   
    36    20    21 1   
    37    21    22 1   
    38    21    24 1   
    39    21    45 1   
    40    22    23 1   
    41    22    46 1   
    42    22    47 1   
    43    23    49 1   
    44    24    25 1   
    45    24    26 1   
    46    24    48 1   
    47    25    50 1   
    48    26    27 1   
    49    26    28 1   
    50    26    51 1   
    51    27    34 1   
    52    28    29 1   
    53    28    35 1   
    54    29    52 1   
@<TRIPOS>SUBSTRUCTURE
     1 CWX         1 TEMP              0 ****  ****    0 ROOT
