@<TRIPOS>MOLECULE
CWX
   52    54     1     0     0
SMALL
No Charge or Current Charge


@<TRIPOS>ATOM
      1 CAR          8.7890     1.5380     0.3500 c3         1 CWX       0.181100
      2 NAQ          7.4460     1.1810    -0.1440 n7         1 CWX      -0.861300
      3 SAN          6.9300    -0.3910     0.0730 sy         1 CWX       1.147600
      4 OAO          7.3430    -1.1190    -1.1290 o          1 CWX      -0.533500
      5 OAP          7.3330    -0.7820     1.4260 o          1 CWX      -0.533500
      6 CAK          5.1540    -0.1170     0.0260 ca         1 CWX      -0.316500
      7 CAJ          4.4910    -0.0130    -1.2130 ca         1 CWX      -0.014500
      8 CAI          3.1030     0.2040    -1.2530 ca         1 CWX      -0.128000
      9 CAL          4.4160     0.0020     1.2210 ca         1 CWX      -0.014500
     10 CAM          3.0290     0.2200     1.1710 ca         1 CWX      -0.128000
     11 CAH          2.3420     0.3250    -0.0640 cp         1 CWX       0.038000
     12 CAE          0.8630     0.5570    -0.1100 cp         1 CWX      -0.091000
     13 CAD          0.2170     1.3670     0.8570 ca         1 CWX      -0.058500
     14 CAC         -1.1700     1.5830     0.8110 ca         1 CWX      -0.161500
     15 CAF          0.0610    -0.0250    -1.1240 ca         1 CWX      -0.058500
     16 CAG         -1.3270     0.1910    -1.1710 ca         1 CWX      -0.161500
     17 CAB         -1.9510     0.9980    -0.1970 ca         1 CWX       0.155100
     18 O1          -3.3070     1.2610    -0.1840 os         1 CWX      -0.384100
     19 C1          -4.2080     0.6500    -1.1320 c6         1 CWX       0.357300
     20 O5          -4.2740    -0.7770    -0.8950 os         1 CWX      -0.444000
     21 C5          -4.7760    -1.1530     0.4190 c6         1 CWX       0.171300
     22 C6          -4.7190    -2.7120     0.5410 c3         1 CWX       0.169600
     23 O6          -3.4040    -3.2610     0.3100 oh         1 CWX      -0.712000
     24 C4          -6.2200    -0.5980     0.6230 c6         1 CWX       0.146300
     25 O4          -6.7320    -0.8860     1.9400 oh         1 CWX      -0.721000
     26 C3          -6.2370     0.9440     0.3770 c6         1 CWX       0.142300
     27 O3          -7.5820     1.4460     0.4700 oh         1 CWX      -0.650000
     28 C2          -5.6410     1.2840    -1.0220 c6         1 CWX       0.124300
     29 O2          -6.5500     0.8050    -2.0500 oh         1 CWX      -0.688000
     30 H21          9.0050     2.5960     0.1500 h1         1 CWX       0.050700
     31 H22          8.8760     1.3780     1.4340 h1         1 CWX       0.050700
     32 H31          0.5170    -0.6650    -1.8770 ha         1 CWX       0.117000
     33 H32         -1.8970    -0.2820    -1.9650 ha         1 CWX       0.132000
     34 HO3         -7.9310     1.3810    -0.4490 ho         1 CWX       0.448000
     35 H2          -5.5360     2.3770    -1.0980 h1         1 CWX       0.050700
     36 HAR          9.5630     0.9390    -0.1480 h1         1 CWX       0.050700
     37 HAQ          6.7330     1.7040     0.3620 hn         1 CWX       0.479000
     38 HAJ          5.0460    -0.0940    -2.1470 ha         1 CWX       0.134000
     39 HAL          4.9080    -0.0780     2.1890 ha         1 CWX       0.134000
     40 HAI          2.6160     0.2940    -2.2200 ha         1 CWX       0.120500
     41 HAM          2.4780     0.2930     2.1050 ha         1 CWX       0.120500
     42 HAD          0.7980     1.8440     1.6430 ha         1 CWX       0.117000
     43 HAC         -1.6440     2.2120     1.5600 ha         1 CWX       0.132000
     44 H1          -3.8310     0.8340    -2.1490 h2         1 CWX       0.077700
     45 H5          -4.1140    -0.7320     1.1890 h1         1 CWX       0.072700
     46 H61         -5.0660    -2.9900     1.5450 h1         1 CWX       0.037700
     47 H62         -5.4340    -3.1350    -0.1770 h1         1 CWX       0.037700
     48 H4          -6.8660    -1.0700    -0.1340 h1         1 CWX       0.070700
     49 HO6         -3.4920    -4.2420     0.3450 ho         1 CWX       0.504000
     50 HO4         -7.4790    -0.2520     2.0710 ho         1 CWX       0.523000
     51 H3          -5.6080     1.4210     1.1440 h1         1 CWX       0.060700
     52 HO2         -6.1920     1.0910    -2.9240 ho         1 CWX       0.505000
@<TRIPOS>BOND
     1     1     2 1   
     2     1    30 1   
     3     1    31 1   
     4     1    36 1   
     5     2     3 1   
     6     2    37 1   
     7     3     4 2   
     8     3     5 2   
     9     3     6 1   
    10     6     7 ar  
    11     6     9 ar  
    12     7     8 ar  
    13     7    38 1   
    14     8    11 ar  
    15     8    40 1   
    16     9    10 ar  
    17     9    39 1   
    18    10    11 ar  
    19    10    41 1   
    20    11    12 1   
    21    12    13 ar  
    22    12    15 ar  
    23    13    14 ar  
    24    13    42 1   
    25    14    17 ar  
    26    14    43 1   
    27    15    16 ar  
    28    15    32 1   
    29    16    17 ar  
    30    16    33 1   
    31    17    18 1   
    32    18    19 1   
    33    19    20 1   
    34    19    28 1   
    35    19    44 1   
    36    20    21 1   
    37    21    22 1   
    38    21    24 1   
    39    21    45 1   
    40    22    23 1   
    41    22    46 1   
    42    22    47 1   
    43    23    49 1   
    44    24    25 1   
    45    24    26 1   
    46    24    48 1   
    47    25    50 1   
    48    26    27 1   
    49    26    28 1   
    50    26    51 1   
    51    27    34 1   
    52    28    29 1   
    53    28    35 1   
    54    29    52 1   
@<TRIPOS>SUBSTRUCTURE
     1 CWX         1 TEMP              0 ****  ****    0 ROOT
