@<TRIPOS>MOLECULE
CWY
   40    42     1     0     0
SMALL
No Charge or Current Charge


@<TRIPOS>ATOM
      1 O1           3.7930    -3.4920    -0.1780 o          1 CWY      -0.744500
      2 C7           0.9290     0.2100     0.4960 c5         1 CWY       0.118700
      3 O2           3.4300     3.6890     0.1070 o          1 CWY      -0.755500
      4 C6           1.9770     1.0020    -0.2920 cx         1 CWY      -0.155700
      5 C1           2.9070    -1.2450     0.2430 c5         1 CWY       0.052200
      6 N1          -0.4100     0.3740    -0.0810 ns         1 CWY      -0.459900
      7 C4           3.1950     1.3870     0.5260 cx         1 CWY      -0.212700
      8 C3           3.2290     0.1560    -0.3780 cx         1 CWY      -0.073700
      9 C2           3.4110    -2.4510    -0.7010 c          1 CWY       0.704000
     10 O4          -1.4150    -0.4360     1.8060 o          1 CWY      -0.626100
     11 C8          -1.5160     0.0000     0.6640 c          1 CWY       0.595700
     12 C9          -2.8670     0.1640    -0.0110 ca         1 CWY      -0.094600
     13 C14         -4.0420    -0.1920     0.6920 ca         1 CWY      -0.100000
     14 C13         -5.3120    -0.0570     0.1070 ca         1 CWY       0.111100
     15 O5          -6.4110    -0.4260     0.8570 os         1 CWY      -0.345100
     16 C15         -7.7540    -0.3270     0.3510 c3         1 CWY       0.155900
     17 C12         -5.4250     0.4420    -1.2070 ca         1 CWY      -0.200000
     18 C11         -4.2700     0.7990    -1.9190 ca         1 CWY      -0.093000
     19 C10         -3.0010     0.6640    -1.3310 ca         1 CWY      -0.115000
     20 C            1.3380    -1.2550     0.1510 c5         1 CWY      -0.063400
     21 O3           5.1840     2.4620    -0.1300 o          1 CWY      -0.755500
     22 N            3.3720    -1.3460     1.6720 n8         1 CWY      -0.989200
     23 O            3.4690    -2.3030    -1.9160 o          1 CWY      -0.744500
     24 H2           0.9660     0.4070     1.5770 h1         1 CWY       0.077700
     25 H4           1.7020     1.6010    -1.1570 hc         1 CWY       0.080700
     26 H5          -0.5730     0.7320    -1.0120 hn         1 CWY       0.305500
     27 H6           3.1350     1.2470     1.6000 hc         1 CWY       0.073700
     28 H7           3.8210     0.2170    -1.2890 hc         1 CWY       0.110700
     29 H8          -3.9750    -0.5780     1.7060 ha         1 CWY       0.145000
     30 H9          -7.9990     0.7120     0.0970 h1         1 CWY       0.030033
     31 H10         -7.8790    -0.9490    -0.5440 h1         1 CWY       0.030033
     32 H11         -8.4710    -0.6700     1.1070 h1         1 CWY       0.030033
     33 H12         -6.3920     0.5580    -1.6880 ha         1 CWY       0.099000
     34 H13         -4.3580     1.1840    -2.9330 ha         1 CWY       0.103000
     35 H14         -2.1340     0.9520    -1.9190 ha         1 CWY       0.135000
     36 H15          0.8810    -1.9860     0.8280 hc         1 CWY       0.034200
     37 H16          1.0130    -1.5250    -0.8620 hc         1 CWY       0.034200
     38 H17          3.2710    -2.3260     1.9620 hn         1 CWY       0.382500
     39 H18          4.3870    -1.2070     1.6930 hn         1 CWY       0.382500
     40 C5           3.9950     2.6050     0.1160 c          1 CWY       0.735000
@<TRIPOS>BOND
     1     1     9 1   
     2     2     4 1   
     3     2     6 1   
     4     2    20 1   
     5     2    24 1   
     6     3    40 1   
     7     4     7 1   
     8     4     8 1   
     9     4    25 1   
    10     5     8 1   
    11     5     9 1   
    12     5    20 1   
    13     5    22 1   
    14     6    11 1   
    15     6    26 1   
    16     7     8 1   
    17     7    27 1   
    18     7    40 1   
    19     8    28 1   
    20     9    23 1   
    21    10    11 2   
    22    11    12 1   
    23    12    13 ar  
    24    12    19 ar  
    25    13    14 ar  
    26    13    29 1   
    27    14    15 1   
    28    14    17 ar  
    29    15    16 1   
    30    16    30 1   
    31    16    31 1   
    32    16    32 1   
    33    17    18 ar  
    34    17    33 1   
    35    18    19 ar  
    36    18    34 1   
    37    19    35 1   
    38    20    36 1   
    39    20    37 1   
    40    21    40 1   
    41    22    38 1   
    42    22    39 1   
@<TRIPOS>SUBSTRUCTURE
     1 CWY         1 TEMP              0 ****  ****    0 ROOT
