@<TRIPOS>MOLECULE
CWY
   40    42     1     0     0
SMALL
bcc


@<TRIPOS>ATOM
      1 O1           3.9740    -3.4130    -0.0040 o          1 CWY      -0.849800
      2 C7           0.8580     0.0590     0.5290 c5         1 CWY       0.118700
      3 O2           4.4420     3.2220     0.7390 o          1 CWY      -0.860800
      4 C6           1.8610     0.8640    -0.2910 cx         1 CWY      -0.155700
      5 C1           2.9080    -1.2890     0.2990 c5         1 CWY       0.052200
      6 N1          -0.4880     0.2140     0.0200 ns         1 CWY      -0.526900
      7 C4           3.1060     1.3140     0.4200 cx         1 CWY      -0.212700
      8 C3           3.1060     0.0550    -0.4110 cx         1 CWY      -0.073700
      9 C2           3.4090    -2.4660    -0.5870 c          1 CWY       0.914600
     10 O4          -1.5640     0.1170     2.0080 o          1 CWY      -0.626100
     11 C8          -1.5890     0.2230     0.7880 c          1 CWY       0.662700
     12 C9          -2.8860     0.3730     0.0540 ca         1 CWY      -0.094600
     13 C14         -4.0230    -0.1680     0.6360 ca         1 CWY      -0.118000
     14 C13         -5.2620    -0.0600     0.0060 ca         1 CWY       0.111100
     15 O5          -6.3000    -0.6340     0.6410 os         1 CWY      -0.321900
     16 C15         -7.5840    -0.5480     0.0550 c3         1 CWY       0.132700
     17 C12         -5.3600     0.6160    -1.2080 ca         1 CWY      -0.218000
     18 C11         -4.2190     1.1720    -1.7740 ca         1 CWY      -0.111000
     19 C10         -2.9850     1.0560    -1.1590 ca         1 CWY      -0.133000
     20 C            1.3740    -1.3850     0.4320 c5         1 CWY      -0.063400
     21 O3           3.8170     2.7210    -1.3410 o          1 CWY      -0.860800
     22 N            3.4990    -1.2690     1.6350 n8         1 CWY      -0.878800
     23 O            3.1680    -2.3890    -1.8080 o          1 CWY      -0.849800
     24 H2           0.8450     0.3920     1.5670 h1         1 CWY       0.077700
     25 H4           1.4920     1.4690    -1.1120 hc         1 CWY       0.080700
     26 H5          -0.6040     0.1360    -0.9780 hn         1 CWY       0.305500
     27 H6           3.1180     1.1860     1.4970 hc         1 CWY       0.073700
     28 H7           3.6810     0.0740    -1.3270 hc         1 CWY       0.110700
     29 H8          -3.9550    -0.6890     1.5830 ha         1 CWY       0.163000
     30 H9          -7.9160     0.4870    -0.0530 h1         1 CWY       0.030033
     31 H10         -7.6200    -1.0350    -0.9230 h1         1 CWY       0.030033
     32 H11         -8.2650    -1.0650     0.7280 h1         1 CWY       0.030033
     33 H12         -6.3060     0.7230    -1.7210 ha         1 CWY       0.117000
     34 H13         -4.3050     1.7100    -2.7080 ha         1 CWY       0.121000
     35 H14         -2.1200     1.5240    -1.6120 ha         1 CWY       0.153000
     36 H15          1.0580    -2.0050     1.2750 hc         1 CWY       0.034200
     37 H16          0.9590    -1.8270    -0.4780 hc         1 CWY       0.034200
     38 H17          3.5670    -2.2320     1.9470 hn         1 CWY       0.327300
     39 H18          4.4610    -0.9600     1.5580 hn         1 CWY       0.327300
     40 C5           3.8490     2.5210    -0.1090 c          1 CWY       0.945600
@<TRIPOS>BOND
     1     1     9 1   
     2     2     4 1   
     3     2     6 1   
     4     2    20 1   
     5     2    24 1   
     6     3    40 1   
     7     4     7 1   
     8     4     8 1   
     9     4    25 1   
    10     5     8 1   
    11     5     9 1   
    12     5    20 1   
    13     5    22 1   
    14     6    11 1   
    15     6    26 1   
    16     7     8 1   
    17     7    27 1   
    18     7    40 1   
    19     8    28 1   
    20     9    23 1   
    21    10    11 2   
    22    11    12 1   
    23    12    13 ar  
    24    12    19 ar  
    25    13    14 ar  
    26    13    29 1   
    27    14    15 1   
    28    14    17 ar  
    29    15    16 1   
    30    16    30 1   
    31    16    31 1   
    32    16    32 1   
    33    17    18 ar  
    34    17    33 1   
    35    18    19 ar  
    36    18    34 1   
    37    19    35 1   
    38    20    36 1   
    39    20    37 1   
    40    21    40 1   
    41    22    38 1   
    42    22    39 1   
@<TRIPOS>SUBSTRUCTURE
     1 CWY         1 TEMP              0 ****  ****    0 ROOT
