@<TRIPOS>MOLECULE
CWZ
   60    64     1     0     0
SMALL
No Charge or Current Charge


@<TRIPOS>ATOM
      1 C26         -1.9180     0.1340    -0.8240 ca         1 CWZ      -0.077000
      2 C18         -2.8190     0.8500    -1.6370 ca         1 CWZ      -0.094300
      3 C19         -3.9320     0.1120    -2.3760 c3         1 CWZ       0.215100
      4 N2          -4.8740    -0.5870    -1.4710 n3         1 CWZ      -0.719600
      5 C25         -5.5570     0.3440    -0.5270 c6         1 CWZ       0.247100
      6 C24         -6.5580    -0.3990     0.3150 cc         1 CWZ      -0.235300
      7 S           -7.2510     0.1990     1.7930 ss         1 CWZ      -0.036400
      8 C23         -8.1820    -1.2770     1.8660 cc         1 CWZ       0.417300
      9 N3          -7.9970    -2.1430     0.8740 nd         1 CWZ      -0.628000
     10 C22         -7.0650    -1.6320    -0.0170 cd         1 CWZ       0.287300
     11 C21         -6.6130    -2.3670    -1.2500 c6         1 CWZ      -0.098700
     12 C20         -5.8520    -1.4280    -2.2100 c6         1 CWZ       0.167800
     13 C17         -2.6830     2.2450    -1.7560 ca         1 CWZ      -0.106000
     14 C16         -1.6570     2.9150    -1.0700 ca         1 CWZ      -0.114000
     15 C15         -0.7630     2.1940    -0.2610 ca         1 CWZ      -0.096000
     16 C14         -0.8750     0.7880    -0.1200 cp         1 CWZ      -0.037000
     17 C12          0.0730     0.0180     0.7470 cp         1 CWZ      -0.038000
     18 C11         -0.3630    -1.1090     1.4880 ca         1 CWZ      -0.097000
     19 C10          0.5270    -1.8310     2.3010 ca         1 CWZ      -0.112000
     20 C9           1.8730    -1.4410     2.3910 ca         1 CWZ      -0.108000
     21 C13          1.4370     0.3920     0.8550 ca         1 CWZ      -0.083000
     22 C8           2.3360    -0.3260     1.6680 ca         1 CWZ      -0.090300
     23 C7           3.7940     0.1030     1.7620 c3         1 CWZ       0.210100
     24 N1           4.5520    -0.3920     0.6000 n7         1 CWZ      -0.870400
     25 C            5.9900    -0.0680     0.6070 c3         1 CWZ       0.163800
     26 C1           6.6740    -0.6070    -0.6660 c3         1 CWZ      -0.030100
     27 C2           8.1640    -0.2880    -0.6940 ca         1 CWZ      -0.131300
     28 C6           9.1060    -1.1990    -0.1710 ca         1 CWZ       0.336900
     29 N           10.4400    -0.9670    -0.1650 nb         1 CWZ      -0.664000
     30 C5          10.8780     0.2010    -0.6890 ca         1 CWZ       0.332900
     31 C4          10.0130     1.1670    -1.2300 ca         1 CWZ      -0.162000
     32 C3           8.6300     0.9240    -1.2350 ca         1 CWZ      -0.071000
     33 H26         -2.0280    -0.9450    -0.7460 ha         1 CWZ       0.129000
     34 H191        -4.4800     0.8240    -3.0100 h1         1 CWZ       0.039700
     35 H192        -3.4600    -0.6140    -3.0510 h1         1 CWZ       0.039700
     36 H17         -3.3730     2.8120    -2.3770 ha         1 CWZ       0.109000
     37 H251        -4.8200     0.8350     0.1260 h1         1 CWZ       0.050200
     38 H252        -6.0700     1.1420    -1.0850 h1         1 CWZ       0.050200
     39 H201        -6.5730    -0.7880    -2.7410 h1         1 CWZ       0.036700
     40 H202        -5.3440    -2.0410    -2.9700 h1         1 CWZ       0.036700
     41 H23         -8.8590    -1.4310     2.6970 h5         1 CWZ       0.052100
     42 H211        -5.9540    -3.1940    -0.9580 hc         1 CWZ       0.066200
     43 H212        -7.4680    -2.8170    -1.7720 hc         1 CWZ       0.066200
     44 H16         -1.5570     3.9940    -1.1610 ha         1 CWZ       0.113000
     45 H15          0.0150     2.7340     0.2730 ha         1 CWZ       0.118000
     46 H11         -1.4040    -1.4200     1.4440 ha         1 CWZ       0.119000
     47 H13          1.8090     1.2410     0.2870 ha         1 CWZ       0.131000
     48 H10          0.1720    -2.6920     2.8640 ha         1 CWZ       0.114000
     49 H9           2.5550    -2.0060     3.0230 ha         1 CWZ       0.109000
     50 H71C         3.8420     1.2000     1.8130 h1         1 CWZ       0.037200
     51 H72C         4.2240    -0.2860     2.6960 h1         1 CWZ       0.037200
     52 H1           4.4500    -1.4140     0.5780 hn         1 CWZ       0.413000
     53 HC1          6.1360     1.0210     0.6530 h1         1 CWZ       0.033200
     54 HC2          6.4780    -0.5070     1.4880 h1         1 CWZ       0.033200
     55 H11C         6.5210    -1.6920    -0.7260 hc         1 CWZ       0.056700
     56 H12C         6.1810    -0.1770    -1.5470 hc         1 CWZ       0.056700
     57 H6           8.7820    -2.1460     0.2600 h4         1 CWZ       0.016100
     58 H3           7.9390     1.6580    -1.6470 ha         1 CWZ       0.119000
     59 H5          11.9550     0.3670    -0.6740 h4         1 CWZ       0.019100
     60 H4          10.4160     2.0900    -1.6380 ha         1 CWZ       0.123000
@<TRIPOS>BOND
     1     1     2 ar  
     2     1    16 ar  
     3     1    33 1   
     4     2     3 1   
     5     2    13 ar  
     6     3     4 1   
     7     3    34 1   
     8     3    35 1   
     9     4     5 1   
    10     4    12 1   
    11     5     6 1   
    12     5    37 1   
    13     5    38 1   
    14     6     7 1   
    15     6    10 2   
    16     7     8 1   
    17     8     9 2   
    18     8    41 1   
    19     9    10 1   
    20    10    11 1   
    21    11    12 1   
    22    11    42 1   
    23    11    43 1   
    24    12    39 1   
    25    12    40 1   
    26    13    14 ar  
    27    13    36 1   
    28    14    15 ar  
    29    14    44 1   
    30    15    16 ar  
    31    15    45 1   
    32    16    17 1   
    33    17    18 ar  
    34    17    21 ar  
    35    18    19 ar  
    36    18    46 1   
    37    19    20 ar  
    38    19    48 1   
    39    20    22 ar  
    40    20    49 1   
    41    21    22 ar  
    42    21    47 1   
    43    22    23 1   
    44    23    24 1   
    45    23    50 1   
    46    23    51 1   
    47    24    25 1   
    48    24    52 1   
    49    25    26 1   
    50    25    53 1   
    51    25    54 1   
    52    26    27 1   
    53    26    55 1   
    54    26    56 1   
    55    27    28 ar  
    56    27    32 ar  
    57    28    29 ar  
    58    28    57 1   
    59    29    30 ar  
    60    30    31 ar  
    61    30    59 1   
    62    31    32 ar  
    63    31    60 1   
    64    32    58 1   
@<TRIPOS>SUBSTRUCTURE
     1 CWZ         1 TEMP              0 ****  ****    0 ROOT
