@<TRIPOS>MOLECULE
CWZ
   60    64     1     0     0
SMALL
bcc


@<TRIPOS>ATOM
      1 C26         -1.8220    -0.1280    -0.8380 ca         1 CWZ      -0.095000
      2 C18         -2.5420     0.5020    -1.8480 ca         1 CWZ      -0.094300
      3 C19         -3.7550    -0.1720    -2.4350 c3         1 CWZ       0.215100
      4 N2          -4.6680    -0.6380    -1.4110 n3         1 CWZ      -0.719600
      5 C25         -5.2690     0.4810    -0.7070 c6         1 CWZ       0.247100
      6 C24         -6.2820    -0.0310     0.2610 cc         1 CWZ      -0.155700
      7 S           -6.9650     0.8520     1.5650 ss         1 CWZ      -0.181300
      8 C23         -7.8980    -0.5350     1.9800 cc         1 CWZ       0.417300
      9 N3          -7.7180    -1.5620     1.2160 nd         1 CWZ      -0.628000
     10 C22         -6.8060    -1.2840     0.2350 cd         1 CWZ       0.352600
     11 C21         -6.3930    -2.2720    -0.8030 c6         1 CWZ      -0.098700
     12 C20         -5.6740    -1.5490    -1.9360 c6         1 CWZ       0.167800
     13 C17         -2.1070     1.7360    -2.3170 ca         1 CWZ      -0.124000
     14 C16         -0.9650     2.3230    -1.7870 ca         1 CWZ      -0.132000
     15 C15         -0.2530     1.6860    -0.7840 ca         1 CWZ      -0.114000
     16 C14         -0.6750     0.4470    -0.2940 cp         1 CWZ      -0.037000
     17 C12          0.0820    -0.2420     0.7720 cp         1 CWZ      -0.038000
     18 C11         -0.5780    -0.9660     1.7650 ca         1 CWZ      -0.115000
     19 C10          0.1470    -1.6140     2.7550 ca         1 CWZ      -0.130000
     20 C9           1.5330    -1.5500     2.7640 ca         1 CWZ      -0.126000
     21 C13          1.4760    -0.1830     0.8000 ca         1 CWZ      -0.101000
     22 C8           2.2130    -0.8290     1.7860 ca         1 CWZ      -0.090300
     23 C7           3.7180    -0.7370     1.8280 c3         1 CWZ       0.210100
     24 N1           4.2940    -0.4870     0.5260 n7         1 CWZ      -0.815200
     25 C            5.7260    -0.2760     0.5630 c3         1 CWZ       0.163800
     26 C1           6.2530     0.0630    -0.8300 c3         1 CWZ      -0.030100
     27 C2           7.7340     0.2960    -0.8170 ca         1 CWZ      -0.196600
     28 C6           8.6270    -0.7310    -1.1070 ca         1 CWZ       0.402200
     29 N            9.9480    -0.6060    -1.0740 nb         1 CWZ      -0.664000
     30 C5          10.4510     0.5780    -0.7410 ca         1 CWZ       0.398200
     31 C4           9.6590     1.6750    -0.4340 ca         1 CWZ      -0.245300
     32 C3           8.2820     1.5280    -0.4730 ca         1 CWZ      -0.089000
     33 H26         -2.1600    -1.0950    -0.4840 ha         1 CWZ       0.147000
     34 H191        -4.2450     0.5120    -3.1480 h1         1 CWZ       0.039700
     35 H192        -3.4310    -1.0410    -3.0130 h1         1 CWZ       0.039700
     36 H17         -2.6650     2.2430    -3.0950 ha         1 CWZ       0.127000
     37 H251        -4.4880     1.0390    -0.1850 h1         1 CWZ       0.050200
     38 H252        -5.7480     1.1910    -1.4040 h1         1 CWZ       0.050200
     39 H201        -6.4110    -1.0230    -2.5660 h1         1 CWZ       0.036700
     40 H202        -5.1770    -2.2790    -2.5750 h1         1 CWZ       0.036700
     41 H23         -8.5750    -0.5140     2.8220 h5         1 CWZ       0.052100
     42 H211        -5.7370    -3.0290    -0.3620 hc         1 CWZ       0.066200
     43 H212        -7.2650    -2.7990    -1.1960 hc         1 CWZ       0.066200
     44 H16         -0.6370     3.2890    -2.1480 ha         1 CWZ       0.131000
     45 H15          0.6220     2.1660    -0.3630 ha         1 CWZ       0.136000
     46 H11         -1.6600    -1.0130     1.7770 ha         1 CWZ       0.137000
     47 H13          2.0060     0.3540     0.0230 ha         1 CWZ       0.149000
     48 H10         -0.3730    -2.1700     3.5240 ha         1 CWZ       0.132000
     49 H9           2.0900    -2.0660     3.5380 ha         1 CWZ       0.127000
     50 H71C         3.9970     0.0950     2.4830 h1         1 CWZ       0.037200
     51 H72C         4.1170    -1.6410     2.3130 h1         1 CWZ       0.037200
     52 H1           4.0900    -1.2710    -0.0850 hn         1 CWZ       0.357800
     53 HC1          5.9320     0.5590     1.2400 h1         1 CWZ       0.033200
     54 HC2          6.2820    -1.1400     0.9600 h1         1 CWZ       0.033200
     55 H11C         6.0170    -0.7570    -1.5140 hc         1 CWZ       0.056700
     56 H12C         5.7320     0.9490    -1.2000 hc         1 CWZ       0.056700
     57 H6           8.2440    -1.7080    -1.3870 h4         1 CWZ       0.016100
     58 H3           7.6350     2.3670    -0.2420 ha         1 CWZ       0.137000
     59 H5          11.5320     0.6590    -0.7200 h4         1 CWZ       0.019100
     60 H4          10.1140     2.6200    -0.1720 ha         1 CWZ       0.141000
@<TRIPOS>BOND
     1     1     2 ar  
     2     1    16 ar  
     3     1    33 1   
     4     2     3 1   
     5     2    13 ar  
     6     3     4 1   
     7     3    34 1   
     8     3    35 1   
     9     4     5 1   
    10     4    12 1   
    11     5     6 1   
    12     5    37 1   
    13     5    38 1   
    14     6     7 1   
    15     6    10 2   
    16     7     8 1   
    17     8     9 2   
    18     8    41 1   
    19     9    10 1   
    20    10    11 1   
    21    11    12 1   
    22    11    42 1   
    23    11    43 1   
    24    12    39 1   
    25    12    40 1   
    26    13    14 ar  
    27    13    36 1   
    28    14    15 ar  
    29    14    44 1   
    30    15    16 ar  
    31    15    45 1   
    32    16    17 1   
    33    17    18 ar  
    34    17    21 ar  
    35    18    19 ar  
    36    18    46 1   
    37    19    20 ar  
    38    19    48 1   
    39    20    22 ar  
    40    20    49 1   
    41    21    22 ar  
    42    21    47 1   
    43    22    23 1   
    44    23    24 1   
    45    23    50 1   
    46    23    51 1   
    47    24    25 1   
    48    24    52 1   
    49    25    26 1   
    50    25    53 1   
    51    25    54 1   
    52    26    27 1   
    53    26    55 1   
    54    26    56 1   
    55    27    28 ar  
    56    27    32 ar  
    57    28    29 ar  
    58    28    57 1   
    59    29    30 ar  
    60    30    31 ar  
    61    30    59 1   
    62    31    32 ar  
    63    31    60 1   
    64    32    58 1   
@<TRIPOS>SUBSTRUCTURE
     1 CWZ         1 TEMP              0 ****  ****    0 ROOT
