@<TRIPOS>MOLECULE
CX1
   79    82     1     0     0
SMALL
No Charge or Current Charge


@<TRIPOS>ATOM
      1 C40          0.1620    -2.8660    -0.2000 ca         1 CX1      -0.072000
      2 C41          1.0070    -2.8300    -1.3230 ca         1 CX1      -0.176500
      3 C42          0.4710    -2.9670    -2.6110 ca         1 CX1       0.105100
      4 O47          1.2960    -2.9330    -3.6940 oh         1 CX1      -0.555100
      5 C43         -0.9100    -3.1490    -2.7800 ca         1 CX1      -0.176500
      6 C44         -1.7560    -3.1890    -1.6570 ca         1 CX1      -0.072000
      7 C39         -1.2280    -3.0350    -0.3590 ca         1 CX1      -0.085300
      8 C24         -2.1370    -3.0910     0.8690 c3         1 CX1      -0.028100
      9 C23         -3.3280    -2.0960     0.8400 c3         1 CX1      -0.043300
     10 C25         -4.2340    -2.2630     2.0960 c          1 CX1       0.713000
     11 O26         -5.3820    -2.6520     1.9300 o          1 CX1      -0.723500
     12 O27         -3.7900    -1.9360     3.1890 o          1 CX1      -0.723500
     13 N22         -2.8790    -0.6880     0.7100 ns         1 CX1      -0.449900
     14 C20         -2.8910     0.0510    -0.4580 c          1 CX1       0.594100
     15 O21         -3.2850    -0.4060    -1.5230 o          1 CX1      -0.627100
     16 C18         -2.3960     1.5110    -0.3060 c3         1 CX1       0.009700
     17 C19         -3.6200     2.4700    -0.2290 c3         1 CX1      -0.047100
     18 C33         -3.2310     3.9120     0.0870 ca         1 CX1      -0.067300
     19 C34         -3.4720     4.9390    -0.8470 ca         1 CX1      -0.103000
     20 C35         -3.1070     6.2650    -0.5540 ca         1 CX1      -0.120000
     21 C36         -2.5050     6.5730     0.6760 ca         1 CX1      -0.126000
     22 C37         -2.2710     5.5560     1.6160 ca         1 CX1      -0.120000
     23 C38         -2.6370     4.2310     1.3240 ca         1 CX1      -0.103000
     24 N16         -1.3510     1.8930    -1.3240 n          1 CX1      -0.371800
     25 C17         -1.8150     2.4490    -2.6240 c3         1 CX1       0.093300
     26 C14          0.0090     1.4810    -1.1950 c          1 CX1       0.590100
     27 O15          0.7850     1.6250    -2.1370 o          1 CX1      -0.637100
     28 C12          0.5380     0.8960     0.1630 c3         1 CX1       0.054700
     29 C13          0.5360     1.9440     1.3170 c3         1 CX1      -0.108700
     30 C28          0.1520     1.3750     2.6590 cc         1 CX1       0.263300
     31 C29          0.8740     1.4140     3.8190 cd         1 CX1      -0.226000
     32 N30          0.0820     0.7660     4.7540 na         1 CX1      -0.303500
     33 C31         -1.0800     0.3720     4.1170 cd         1 CX1       0.409400
     34 N32         -1.0480     0.7490     2.8460 nc         1 CX1      -0.697000
     35 N10          1.8920     0.3330    -0.0440 ns         1 CX1      -0.494900
     36 C9           2.5710    -0.4880     0.8080 c          1 CX1       0.640100
     37 O11          2.1620    -0.8940     1.8830 o          1 CX1      -0.549000
     38 O8           3.7510    -0.8280     0.2280 os         1 CX1      -0.461100
     39 C7           4.5970    -1.7460     0.9370 c3         1 CX1       0.229900
     40 C5           5.8310    -2.0160     0.0870 ca         1 CX1      -0.096300
     41 C6           7.0390    -1.3360     0.3440 ca         1 CX1      -0.083000
     42 C1           8.1760    -1.5890    -0.4430 ca         1 CX1      -0.120000
     43 C2           8.1130    -2.5230    -1.4910 ca         1 CX1      -0.106000
     44 C3           6.9120    -3.2020    -1.7530 ca         1 CX1      -0.120000
     45 C4           5.7740    -2.9490    -0.9670 ca         1 CX1      -0.083000
     46 H40          0.5880    -2.7690     0.7950 ha         1 CX1       0.121500
     47 H41          2.0780    -2.7000    -1.1930 ha         1 CX1       0.109000
     48 HO47         0.7500    -3.0450    -4.5020 ho         1 CX1       0.452000
     49 H43         -1.3340    -3.2630    -3.7740 ha         1 CX1       0.109000
     50 H44         -2.8240    -3.3370    -1.7990 ha         1 CX1       0.121500
     51 H24         -2.5370    -4.1070     0.9710 hc         1 CX1       0.054200
     52 H24A        -1.5530    -2.9070     1.7790 hc         1 CX1       0.054200
     53 H23         -3.9570    -2.3400    -0.0240 h1         1 CX1       0.069700
     54 HN22        -2.5110    -0.2280     1.5410 hn         1 CX1       0.319500
     55 H18         -1.9440     1.5690     0.6810 h1         1 CX1       0.089700
     56 H19         -4.2120     2.4120    -1.1500 hc         1 CX1       0.087700
     57 H19A        -4.2910     2.1080     0.5610 hc         1 CX1       0.087700
     58 H34         -3.9390     4.7120    -1.8040 ha         1 CX1       0.121000
     59 H35         -3.2920     7.0520    -1.2810 ha         1 CX1       0.102500
     60 H36         -2.2220     7.5990     0.9030 ha         1 CX1       0.099000
     61 H37         -1.8090     5.7940     2.5720 ha         1 CX1       0.102500
     62 H38         -2.4570     3.4520     2.0620 ha         1 CX1       0.121000
     63 H17         -1.7430     3.5430    -2.6020 h1         1 CX1       0.043700
     64 H17A        -1.2060     2.0720    -3.4540 h1         1 CX1       0.043700
     65 H17B        -2.8520     2.1570    -2.8280 h1         1 CX1       0.043700
     66 H12         -0.1350     0.0680     0.4200 h1         1 CX1       0.107700
     67 H13          1.5240     2.4140     1.3820 hc         1 CX1       0.062700
     68 H13A        -0.1480     2.7650     1.0790 hc         1 CX1       0.062700
     69 H29          1.8510     1.8320     4.0320 h4         1 CX1       0.150000
     70 H31         -1.8770    -0.1580     4.6270 h5         1 CX1       0.064100
     71 HN10         2.3610     0.5390    -0.9180 hn         1 CX1       0.353500
     72 H7           4.8970    -1.3280     1.9080 h1         1 CX1       0.053700
     73 H7A          4.0720    -2.6920     1.1240 h1         1 CX1       0.053700
     74 H6           7.0960    -0.6090     1.1520 ha         1 CX1       0.122500
     75 H1           9.1050    -1.0610    -0.2400 ha         1 CX1       0.109000
     76 H2           8.9940    -2.7180    -2.1000 ha         1 CX1       0.105000
     77 H3           6.8610    -3.9230    -2.5660 ha         1 CX1       0.109000
     78 H4           4.8460    -3.4770    -1.1790 ha         1 CX1       0.122500
     79 HN30         0.2960     0.5980     5.7290 hn         1 CX1       0.346000
@<TRIPOS>BOND
     1     1     2 ar  
     2     1     7 ar  
     3     1    46 1   
     4     2     3 ar  
     5     2    47 1   
     6     3     4 1   
     7     3     5 ar  
     8     4    48 1   
     9     5     6 ar  
    10     5    49 1   
    11     6     7 ar  
    12     6    50 1   
    13     7     8 1   
    14     8     9 1   
    15     8    51 1   
    16     8    52 1   
    17     9    10 1   
    18     9    13 1   
    19     9    53 1   
    20    10    11 1   
    21    10    12 1   
    22    13    14 1   
    23    13    54 1   
    24    14    15 2   
    25    14    16 1   
    26    16    17 1   
    27    16    24 1   
    28    16    55 1   
    29    17    18 1   
    30    17    56 1   
    31    17    57 1   
    32    18    19 ar  
    33    18    23 ar  
    34    19    20 ar  
    35    19    58 1   
    36    20    21 ar  
    37    20    59 1   
    38    21    22 ar  
    39    21    60 1   
    40    22    23 ar  
    41    22    61 1   
    42    23    62 1   
    43    24    25 1   
    44    24    26 1   
    45    25    63 1   
    46    25    64 1   
    47    25    65 1   
    48    26    27 2   
    49    26    28 1   
    50    28    29 1   
    51    28    35 1   
    52    28    66 1   
    53    29    30 1   
    54    29    67 1   
    55    29    68 1   
    56    30    31 2   
    57    30    34 1   
    58    31    32 1   
    59    31    69 1   
    60    32    33 1   
    61    32    79 1   
    62    33    34 2   
    63    33    70 1   
    64    35    36 1   
    65    35    71 1   
    66    36    37 2   
    67    36    38 1   
    68    38    39 1   
    69    39    40 1   
    70    39    72 1   
    71    39    73 1   
    72    40    41 ar  
    73    40    45 ar  
    74    41    42 ar  
    75    41    74 1   
    76    42    43 ar  
    77    42    75 1   
    78    43    44 ar  
    79    43    76 1   
    80    44    45 ar  
    81    44    77 1   
    82    45    78 1   
@<TRIPOS>SUBSTRUCTURE
     1 CX1         1 TEMP              0 ****  ****    0 ROOT
