@<TRIPOS>MOLECULE
CX1
   79    82     1     0     0
SMALL
abcg2


@<TRIPOS>ATOM
      1 C40         -0.3250    -2.8190     0.5490 ca         1 CX1      -0.072000
      2 C41          0.8840    -3.2240     0.0040 ca         1 CX1      -0.176500
      3 C42          0.9190    -4.2460    -0.9390 ca         1 CX1       0.105100
      4 O47          2.1240    -4.6010    -1.4390 oh         1 CX1      -0.555100
      5 C43         -0.2700    -4.8590    -1.3220 ca         1 CX1      -0.176500
      6 C44         -1.4700    -4.4450    -0.7600 ca         1 CX1      -0.072000
      7 C39         -1.5260    -3.4220     0.1820 ca         1 CX1      -0.085300
      8 C24         -2.8470    -2.9790     0.7480 c3         1 CX1      -0.028100
      9 C23         -3.5300    -1.8940    -0.0920 c3         1 CX1      -0.043300
     10 C25         -4.9900    -1.6340     0.3810 c          1 CX1       0.713000
     11 O26         -5.7120    -2.6480     0.4420 o          1 CX1      -0.723500
     12 O27         -5.3120    -0.4630     0.6400 o          1 CX1      -0.723500
     13 N22         -2.7400    -0.6900    -0.0750 ns         1 CX1      -0.449900
     14 C20         -2.8030     0.2400    -1.0310 c          1 CX1       0.594100
     15 O21         -3.2790     0.0690    -2.1460 o          1 CX1      -0.627100
     16 C18         -2.2340     1.5850    -0.5930 c3         1 CX1       0.009700
     17 C19         -3.3900     2.5580    -0.3000 c3         1 CX1      -0.047100
     18 C33         -2.9120     3.7520     0.4770 ca         1 CX1      -0.067300
     19 C34         -2.4680     4.9070    -0.1630 ca         1 CX1      -0.103000
     20 C35         -1.9620     5.9730     0.5690 ca         1 CX1      -0.120000
     21 C36         -1.8940     5.9000     1.9540 ca         1 CX1      -0.126000
     22 C37         -2.3400     4.7560     2.6030 ca         1 CX1      -0.120000
     23 C38         -2.8460     3.6940     1.8680 ca         1 CX1      -0.103000
     24 N16         -1.2510     2.1020    -1.5280 n          1 CX1      -0.371800
     25 C17         -1.6780     2.6450    -2.8080 c3         1 CX1       0.093300
     26 C14          0.0790     2.0070    -1.3270 c          1 CX1       0.590100
     27 O15          0.8770     2.4400    -2.1480 o          1 CX1      -0.637100
     28 C12          0.5900     1.3310    -0.0480 c3         1 CX1       0.054700
     29 C13          0.3860     2.2380     1.1940 c3         1 CX1      -0.108700
     30 C28         -0.0510     1.4900     2.4100 cc         1 CX1       0.263300
     31 C29          0.4140     1.6060     3.6870 cd         1 CX1      -0.226000
     32 N30         -0.3330     0.7370     4.4320 na         1 CX1      -0.303500
     33 C31         -1.2050     0.1370     3.6060 cd         1 CX1       0.409400
     34 N32         -1.0660     0.5690     2.3770 nc         1 CX1      -0.697000
     35 N10          1.9710     1.0000    -0.2890 ns         1 CX1      -0.494900
     36 C9           2.6340     0.0920     0.4440 c          1 CX1       0.640100
     37 O11          2.1990    -0.4670     1.4290 o          1 CX1      -0.549000
     38 O8           3.8540    -0.1250    -0.0680 os         1 CX1      -0.461100
     39 C7           4.6890    -1.0800     0.5950 c3         1 CX1       0.229900
     40 C5           5.7440    -1.4950    -0.3850 ca         1 CX1      -0.096300
     41 C6           6.9930    -0.8820    -0.3890 ca         1 CX1      -0.083000
     42 C1           7.9580    -1.2540    -1.3160 ca         1 CX1      -0.120000
     43 C2           7.6790    -2.2410    -2.2510 ca         1 CX1      -0.106000
     44 C3           6.4330    -2.8580    -2.2540 ca         1 CX1      -0.120000
     45 C4           5.4710    -2.4850    -1.3260 ca         1 CX1      -0.083000
     46 H40         -0.3200    -2.0150     1.2760 ha         1 CX1       0.121500
     47 H41          1.8040    -2.7500     0.3170 ha         1 CX1       0.109000
     48 HO47         2.0250    -5.3160    -2.0770 ho         1 CX1       0.452000
     49 H43         -0.2640    -5.6600    -2.0520 ha         1 CX1       0.109000
     50 H44         -2.3850    -4.9410    -1.0660 ha         1 CX1       0.121500
     51 H24         -3.5280    -3.8270     0.8080 hc         1 CX1       0.054200
     52 H24A        -2.7160    -2.6140     1.7730 hc         1 CX1       0.054200
     53 H23         -3.5820    -2.2510    -1.1250 h1         1 CX1       0.069700
     54 HN22        -2.3710    -0.3900     0.8230 hn         1 CX1       0.319500
     55 H18         -1.7440     1.4380     0.3640 h1         1 CX1       0.089700
     56 H19         -3.8960     2.8630    -1.2170 hc         1 CX1       0.087700
     57 H19A        -4.1240     1.9980     0.2850 hc         1 CX1       0.087700
     58 H34         -2.5200     4.9810    -1.2430 ha         1 CX1       0.121000
     59 H35         -1.6200     6.8630     0.0560 ha         1 CX1       0.102500
     60 H36         -1.4980     6.7320     2.5230 ha         1 CX1       0.099000
     61 H37         -2.2930     4.6890     3.6820 ha         1 CX1       0.102500
     62 H38         -3.1810     2.7990     2.3790 ha         1 CX1       0.121000
     63 H17         -1.3940     3.6920    -2.9120 h1         1 CX1       0.043700
     64 H17A        -1.2410     2.0880    -3.6350 h1         1 CX1       0.043700
     65 H17B        -2.7560     2.5720    -2.8940 h1         1 CX1       0.043700
     66 H12          0.0410     0.3980     0.1050 h1         1 CX1       0.107700
     67 H13          1.3180     2.7650     1.3970 hc         1 CX1       0.062700
     68 H13A        -0.3510     3.0160     0.9750 hc         1 CX1       0.062700
     69 H29          1.1970     2.2080     4.1150 h4         1 CX1       0.150000
     70 H31         -1.9170    -0.6000     3.9450 h5         1 CX1       0.064100
     71 HN10         2.4140     1.4290    -1.0890 hn         1 CX1       0.353500
     72 H7           5.1330    -0.6290     1.4850 h1         1 CX1       0.053700
     73 H7A          4.1060    -1.9450     0.9140 h1         1 CX1       0.053700
     74 H6           7.2140    -0.1130     0.3410 ha         1 CX1       0.122500
     75 H1           8.9280    -0.7730    -1.3070 ha         1 CX1       0.109000
     76 H2           8.4310    -2.5340    -2.9720 ha         1 CX1       0.105000
     77 H3           6.2140    -3.6320    -2.9780 ha         1 CX1       0.109000
     78 H4           4.5040    -2.9760    -1.3280 ha         1 CX1       0.122500
     79 HN30        -0.2420     0.5700     5.4210 hn         1 CX1       0.346000
@<TRIPOS>BOND
     1     1     2 ar  
     2     1     7 ar  
     3     1    46 1   
     4     2     3 ar  
     5     2    47 1   
     6     3     4 1   
     7     3     5 ar  
     8     4    48 1   
     9     5     6 ar  
    10     5    49 1   
    11     6     7 ar  
    12     6    50 1   
    13     7     8 1   
    14     8     9 1   
    15     8    51 1   
    16     8    52 1   
    17     9    10 1   
    18     9    13 1   
    19     9    53 1   
    20    10    11 1   
    21    10    12 1   
    22    13    14 1   
    23    13    54 1   
    24    14    15 2   
    25    14    16 1   
    26    16    17 1   
    27    16    24 1   
    28    16    55 1   
    29    17    18 1   
    30    17    56 1   
    31    17    57 1   
    32    18    19 ar  
    33    18    23 ar  
    34    19    20 ar  
    35    19    58 1   
    36    20    21 ar  
    37    20    59 1   
    38    21    22 ar  
    39    21    60 1   
    40    22    23 ar  
    41    22    61 1   
    42    23    62 1   
    43    24    25 1   
    44    24    26 1   
    45    25    63 1   
    46    25    64 1   
    47    25    65 1   
    48    26    27 2   
    49    26    28 1   
    50    28    29 1   
    51    28    35 1   
    52    28    66 1   
    53    29    30 1   
    54    29    67 1   
    55    29    68 1   
    56    30    31 2   
    57    30    34 1   
    58    31    32 1   
    59    31    69 1   
    60    32    33 1   
    61    32    79 1   
    62    33    34 2   
    63    33    70 1   
    64    35    36 1   
    65    35    71 1   
    66    36    37 2   
    67    36    38 1   
    68    38    39 1   
    69    39    40 1   
    70    39    72 1   
    71    39    73 1   
    72    40    41 ar  
    73    40    45 ar  
    74    41    42 ar  
    75    41    74 1   
    76    42    43 ar  
    77    42    75 1   
    78    43    44 ar  
    79    43    76 1   
    80    44    45 ar  
    81    44    77 1   
    82    45    78 1   
@<TRIPOS>SUBSTRUCTURE
     1 CX1         1 TEMP              0 ****  ****    0 ROOT
