@<TRIPOS>MOLECULE
CX4
   28    30     1     0     0
SMALL
No Charge or Current Charge


@<TRIPOS>ATOM
      1 CAF          5.7920    -0.8300     0.0160 cx         1 CX4      -0.122900
      2 CAG          4.8080    -1.6370    -0.7990 cx         1 CX4      -0.122900
      3 CAP          4.3400    -0.8960     0.4340 cx         1 CX4      -0.162700
      4 CAH          3.4450     0.3310     0.3260 c3         1 CX4       0.260800
      5 NAK          2.0390    -0.0850     0.2780 nu         1 CX4      -0.918100
      6 C6           0.9160     0.7370     0.1960 ca         1 CX4       0.408900
      7 C5          -0.3950     0.2170     0.0690 ca         1 CX4      -0.184000
      8 CAD         -0.6690    -1.1710     0.0180 ca         1 CX4      -0.061000
      9 CAB         -1.9930    -1.6210    -0.1090 ca         1 CX4      -0.126000
     10 CAL         -3.0440    -0.6970    -0.1870 ca         1 CX4       0.145000
     11 ClAA        -4.7010    -1.2670    -0.3460 cl         1 CX4      -0.194000
     12 CAE         -2.7790     0.6790    -0.1370 ca         1 CX4      -0.095000
     13 C4          -1.4600     1.1500    -0.0090 ca         1 CX4       0.063000
     14 N3          -1.2140     2.4760     0.0380 nb         1 CX4      -0.216000
     15 C2           0.0710     2.8630     0.1610 ca         1 CX4       0.177900
     16 N1           1.1470     2.0600     0.2420 nb         1 CX4      -0.296000
     17 HAF          6.5180    -1.3730     0.6170 hc         1 CX4       0.075700
     18 HAFA         6.1620     0.0980    -0.4140 hc         1 CX4       0.075700
     19 HAG          4.5170    -1.2480    -1.7720 hc         1 CX4       0.075700
     20 HAGA         4.8730    -2.7220    -0.7440 hc         1 CX4       0.075700
     21 HAP          4.1230    -1.4920     1.3190 hc         1 CX4       0.083700
     22 HAH          3.6210     0.9800     1.1950 h1         1 CX4       0.061700
     23 HAHA         3.7040     0.9020    -0.5770 h1         1 CX4       0.061700
     24 HNAK         1.8620    -1.0840     0.2060 hn         1 CX4       0.499000
     25 HAD          0.1270    -1.9080     0.0770 ha         1 CX4       0.108000
     26 HAB         -2.2040    -2.6870    -0.1480 ha         1 CX4       0.131000
     27 HAE         -3.6030     1.3850    -0.1980 ha         1 CX4       0.150000
     28 H2           0.2560     3.9350     0.1980 h5         1 CX4       0.044100
@<TRIPOS>BOND
     1     1     2 1   
     2     1     3 1   
     3     1    17 1   
     4     1    18 1   
     5     2     3 1   
     6     2    19 1   
     7     2    20 1   
     8     3     4 1   
     9     3    21 1   
    10     4     5 1   
    11     4    22 1   
    12     4    23 1   
    13     5     6 1   
    14     5    24 1   
    15     6     7 ar  
    16     6    16 ar  
    17     7     8 ar  
    18     7    13 ar  
    19     8     9 ar  
    20     8    25 1   
    21     9    10 ar  
    22     9    26 1   
    23    10    11 1   
    24    10    12 ar  
    25    12    13 ar  
    26    12    27 1   
    27    13    14 ar  
    28    14    15 ar  
    29    15    16 ar  
    30    15    28 1   
@<TRIPOS>SUBSTRUCTURE
     1 CX4         1 TEMP              0 ****  ****    0 ROOT
