@<TRIPOS>MOLECULE
CX4
   28    30     1     0     0
SMALL
bcc


@<TRIPOS>ATOM
      1 CAF          5.7170    -0.7290    -0.0770 cx         1 CX4      -0.122900
      2 CAG          4.7000    -1.5810    -0.7750 cx         1 CX4      -0.122900
      3 CAP          4.3400    -0.8600     0.4900 cx         1 CX4      -0.162700
      4 CAH          3.4030     0.3110     0.4240 c3         1 CX4       0.260800
      5 NAK          2.0360    -0.1600     0.2980 nu         1 CX4      -0.862900
      6 C6           0.9860     0.6520     0.2000 ca         1 CX4       0.737200
      7 C5          -0.3560     0.1410     0.0620 ca         1 CX4      -0.314600
      8 CAD         -0.6950    -1.2220     0.0320 ca         1 CX4      -0.079000
      9 CAB         -2.0000    -1.6210    -0.1020 ca         1 CX4      -0.144000
     10 CAL         -3.0010    -0.6440    -0.2100 ca         1 CX4       0.053400
     11 CLAA        -4.6440    -1.1580    -0.3790 cl         1 CX4      -0.102400
     12 CAE         -2.7110     0.6940    -0.1830 ca         1 CX4      -0.178300
     13 C4          -1.3730     1.1100    -0.0430 ca         1 CX4       0.456600
     14 N3          -1.1080     2.4440    -0.0120 nb         1 CX4      -0.742000
     15 C2           0.1470     2.7680     0.1250 ca         1 CX4       0.703900
     16 N1           1.2050     1.9580     0.2340 nb         1 CX4      -0.822000
     17 HAF          6.5280    -1.2210     0.4430 hc         1 CX4       0.075700
     18 HAFA         5.9900     0.2150    -0.5320 hc         1 CX4       0.075700
     19 HAG          4.2800    -1.2130    -1.7030 hc         1 CX4       0.075700
     20 HAGA         4.8170    -2.6560    -0.7340 hc         1 CX4       0.075700
     21 HAP          4.2430    -1.4720     1.3820 hc         1 CX4       0.083700
     22 HAH          3.4970     0.9300     1.3200 h1         1 CX4       0.061700
     23 HAHA         3.6540     0.9520    -0.4260 h1         1 CX4       0.061700
     24 HNAK         1.9040    -1.1560     0.2350 hn         1 CX4       0.443800
     25 HAD          0.0620    -1.9910     0.1140 ha         1 CX4       0.126000
     26 HAB         -2.2540    -2.6710    -0.1240 ha         1 CX4       0.149000
     27 HAE         -3.4860     1.4440    -0.2640 ha         1 CX4       0.168000
     28 H2           0.3750     3.8290     0.1550 h5         1 CX4       0.044100
@<TRIPOS>BOND
     1     1     2 1   
     2     1     3 1   
     3     1    17 1   
     4     1    18 1   
     5     2     3 1   
     6     2    19 1   
     7     2    20 1   
     8     3     4 1   
     9     3    21 1   
    10     4     5 1   
    11     4    22 1   
    12     4    23 1   
    13     5     6 1   
    14     5    24 1   
    15     6     7 ar  
    16     6    16 ar  
    17     7     8 ar  
    18     7    13 ar  
    19     8     9 ar  
    20     8    25 1   
    21     9    10 ar  
    22     9    26 1   
    23    10    11 1   
    24    10    12 ar  
    25    12    13 ar  
    26    12    27 1   
    27    13    14 ar  
    28    14    15 ar  
    29    15    16 ar  
    30    15    28 1   
@<TRIPOS>SUBSTRUCTURE
     1 CX4         1 TEMP              0 ****  ****    0 ROOT
