@<TRIPOS>MOLECULE
CX5
   33    35     1     0     0
SMALL
abcg2


@<TRIPOS>ATOM
      1 C1          -0.8530    -0.1100    -0.8120 ca         1 CX5      -0.048000
      2 C2          -0.0620     0.6890    -0.0280 ca         1 CX5      -0.129600
      3 C3          -0.6220     1.3890     1.0670 ca         1 CX5      -0.067000
      4 C4          -1.9450     1.2540     1.3800 ca         1 CX5      -0.081000
      5 C6          -2.7780     0.4380     0.5860 ca         1 CX5       0.232000
      6 C7          -4.8110    -0.4390     0.1150 ca         1 CX5       0.302900
      7 C8          -4.2590    -1.1200    -0.9990 ca         1 CX5       0.295900
      8 C9           1.3670     0.9600    -0.3890 c          1 CX5       0.611700
      9 C11          1.9750    -1.4040     0.0640 c6         1 CX5       0.093500
     10 C13          4.5370    -0.0210     0.1970 c6         1 CX5      -0.101400
     11 C14          4.3620    -1.3770     0.8740 c6         1 CX5      -0.074400
     12 C5          -2.2270    -0.2440    -0.5240 ca         1 CX5       0.213000
     13 N1          -4.0920     0.3210     0.8900 nb         1 CX5      -0.624000
     14 N2          -2.9990    -1.0270    -1.3140 nb         1 CX5      -0.620000
     15 C10          2.9050    -1.6090     1.2560 c6         1 CX5      -0.101400
     16 N3           2.1940    -0.0920    -0.5320 n          1 CX5      -0.397800
     17 C12          3.5680     0.1180    -0.9700 c6         1 CX5       0.093500
     18 O1           1.7030     2.1220    -0.5820 o          1 CX5      -0.591100
     19 H1          -0.4510    -0.6450    -1.6640 ha         1 CX5       0.140000
     20 H2           0.0120     2.0270     1.6690 ha         1 CX5       0.133000
     21 H3          -2.3750     1.7710     2.2280 ha         1 CX5       0.138000
     22 H4          -5.8650    -0.5450     0.3410 h4         1 CX5       0.031100
     23 H5          -4.8940    -1.7440    -1.6170 h4         1 CX5       0.031100
     24 H7           0.9400    -1.5140     0.3740 h1         1 CX5       0.058450
     25 H8           4.3580     0.7860     0.9130 hc         1 CX5       0.050950
     26 H9           5.5590     0.0970    -0.1690 hc         1 CX5       0.050950
     27 H10          4.6860    -2.1650     0.1870 hc         1 CX5       0.042700
     28 H11          5.0020    -1.4490     1.7560 hc         1 CX5       0.042700
     29 H12          2.6110    -0.9210     2.0550 hc         1 CX5       0.050950
     30 H13          2.7630    -2.6210     1.6410 hc         1 CX5       0.050950
     31 H14          3.6520     1.0920    -1.4450 h1         1 CX5       0.058450
     32 H15          3.7900    -0.6400    -1.7280 h1         1 CX5       0.058450
     33 H6           2.1650    -2.1650    -0.6990 h1         1 CX5       0.058450
@<TRIPOS>BOND
     1     1     2 ar  
     2     1    12 ar  
     3     1    19 1   
     4     2     3 ar  
     5     2     8 1   
     6     3     4 ar  
     7     3    20 1   
     8     4     5 ar  
     9     4    21 1   
    10     5    12 ar  
    11     5    13 ar  
    12     6     7 ar  
    13     6    13 ar  
    14     6    22 1   
    15     7    14 ar  
    16     7    23 1   
    17     8    16 1   
    18     8    18 2   
    19     9    15 1   
    20     9    16 1   
    21     9    24 1   
    22     9    33 1   
    23    10    11 1   
    24    10    17 1   
    25    10    25 1   
    26    10    26 1   
    27    11    15 1   
    28    11    27 1   
    29    11    28 1   
    30    12    14 ar  
    31    15    29 1   
    32    15    30 1   
    33    16    17 1   
    34    17    31 1   
    35    17    32 1   
@<TRIPOS>SUBSTRUCTURE
     1 CX5         1 TEMP              0 ****  ****    0 ROOT
