@<TRIPOS>MOLECULE
CX5
   33    35     1     0     0
SMALL
No Charge or Current Charge


@<TRIPOS>ATOM
      1 C1          -0.8260    -0.1040    -0.6020 ca         1 CX5      -0.048000
      2 C2          -0.1060     0.8730     0.1240 ca         1 CX5      -0.129600
      3 C3          -0.8110     1.7110     1.0100 ca         1 CX5      -0.067000
      4 C4          -2.1930     1.5500     1.1980 ca         1 CX5      -0.081000
      5 C6          -2.9110     0.5640     0.4990 ca         1 CX5       0.232000
      6 C7          -4.8830    -0.5290    -0.0090 ca         1 CX5       0.302900
      7 C8          -4.1940    -1.3590    -0.9250 ca         1 CX5       0.295900
      8 C9           1.3790     1.0840    -0.0820 c          1 CX5       0.611700
      9 C11          1.9590    -1.3850     0.1220 c6         1 CX5       0.093500
     10 C13          4.6370    -0.1360     0.1020 c6         1 CX5      -0.101400
     11 C14          4.4480    -1.5560     0.6810 c6         1 CX5      -0.074400
     12 C5          -2.2110    -0.2800    -0.4280 ca         1 CX5       0.213000
     13 N1          -4.2500     0.4380     0.7080 nb         1 CX5      -0.624000
     14 N2          -2.8560    -1.2420    -1.1430 nb         1 CX5      -0.620000
     15 C10          3.0060    -1.7320     1.2100 c6         1 CX5      -0.101400
     16 N3           2.1840    -0.0230    -0.4440 n          1 CX5      -0.397800
     17 C12          3.5640     0.1650    -0.9710 c6         1 CX5       0.093500
     18 O1           1.8540     2.2120    -0.0240 o          1 CX5      -0.591100
     19 H1          -0.3130    -0.7290    -1.3290 ha         1 CX5       0.140000
     20 H2          -0.2850     2.4860     1.5640 ha         1 CX5       0.133000
     21 H3          -2.7180     2.1990     1.8940 ha         1 CX5       0.138000
     22 H4          -5.9550    -0.6400     0.1490 h4         1 CX5       0.031100
     23 H5          -4.7210    -2.1260    -1.4910 h4         1 CX5       0.031100
     24 H7           0.9620    -1.4710     0.5730 h1         1 CX5       0.058450
     25 H8           4.5680     0.6080     0.9070 hc         1 CX5       0.050950
     26 H9           5.6400    -0.0370    -0.3350 hc         1 CX5       0.050950
     27 H10          4.6530    -2.3050    -0.0960 hc         1 CX5       0.042700
     28 H11          5.1710    -1.7330     1.4890 hc         1 CX5       0.042700
     29 H12          2.8510    -1.0840     2.0830 hc         1 CX5       0.050950
     30 H13          2.8550    -2.7640     1.5550 hc         1 CX5       0.050950
     31 H14          3.6980     1.1880    -1.3520 h1         1 CX5       0.058450
     32 H15          3.7080    -0.5120    -1.8260 h1         1 CX5       0.058450
     33 H6           2.0150    -2.1230    -0.6910 h1         1 CX5       0.058450
@<TRIPOS>BOND
     1     1     2 ar  
     2     1    12 ar  
     3     1    19 1   
     4     2     3 ar  
     5     2     8 1   
     6     3     4 ar  
     7     3    20 1   
     8     4     5 ar  
     9     4    21 1   
    10     5    12 ar  
    11     5    13 ar  
    12     6     7 ar  
    13     6    13 ar  
    14     6    22 1   
    15     7    14 ar  
    16     7    23 1   
    17     8    16 1   
    18     8    18 2   
    19     9    15 1   
    20     9    16 1   
    21     9    24 1   
    22     9    33 1   
    23    10    11 1   
    24    10    17 1   
    25    10    25 1   
    26    10    26 1   
    27    11    15 1   
    28    11    27 1   
    29    11    28 1   
    30    12    14 ar  
    31    15    29 1   
    32    15    30 1   
    33    16    17 1   
    34    17    31 1   
    35    17    32 1   
@<TRIPOS>SUBSTRUCTURE
     1 CX5         1 TEMP              0 ****  ****    0 ROOT
