@<TRIPOS>MOLECULE
CX6
   31    34     1     0     0
SMALL
abcg2


@<TRIPOS>ATOM
      1 O1           1.3360     1.5280    -0.2210 os         1 CX6      -0.338100
      2 O2           1.6240    -2.4740    -0.2150 o          1 CX6      -0.549000
      3 N1           2.5780    -0.4470     0.1050 n          1 CX6      -0.448800
      4 C1           2.4090     0.9420     0.4810 c5         1 CX6       0.337700
      5 C2           3.7410     1.5670     0.1220 c5         1 CX6      -0.089400
      6 C3           4.7240     0.4230     0.3650 c5         1 CX6      -0.096400
      7 C4           3.9670    -0.8200    -0.1040 c5         1 CX6       0.112000
      8 C5           1.5230    -1.2720    -0.0090 c          1 CX6       0.598600
      9 C6           0.2250    -0.5650     0.0690 ca         1 CX6      -0.229600
     10 C7           0.1860     0.8210    -0.0990 ca         1 CX6       0.161100
     11 C8          -1.0230     1.4880    -0.1890 ca         1 CX6      -0.154000
     12 C9          -2.2090     0.7720    -0.0970 ca         1 CX6       0.117100
     13 C10         -2.1840    -0.6170     0.1130 ca         1 CX6       0.009100
     14 C11         -0.9690    -1.2690     0.1770 ca         1 CX6      -0.017000
     15 O3          -3.3640     1.4520    -0.2030 os         1 CX6      -0.327100
     16 O4          -3.3270    -1.3350     0.2450 os         1 CX6      -0.323100
     17 C12         -4.4630    -0.5460     0.5610 c6         1 CX6       0.117600
     18 C13         -4.5300     0.6500    -0.3560 c6         1 CX6       0.118600
     19 H1           2.2000     1.0220     1.5560 h2         1 CX6       0.056700
     20 H21          3.9580     2.4550     0.7130 hc         1 CX6       0.069700
     21 H22          3.7340     1.8480    -0.9340 hc         1 CX6       0.069700
     22 H31          4.9530     0.3430     1.4290 hc         1 CX6       0.057200
     23 H32          5.6630     0.5590    -0.1670 hc         1 CX6       0.057200
     24 H41          4.2310    -1.7110     0.4660 h1         1 CX6       0.058700
     25 H42          4.1490    -1.0300    -1.1610 h1         1 CX6       0.058700
     26 H8          -1.0520     2.5600    -0.3380 ha         1 CX6       0.146000
     27 H11         -0.9500    -2.3450     0.3050 ha         1 CX6       0.151000
     28 H121        -4.4230    -0.2250     1.6070 h1         1 CX6       0.068700
     29 H122        -5.3410    -1.1760     0.4280 h1         1 CX6       0.068700
     30 H131        -5.3840     1.2790    -0.1090 h1         1 CX6       0.071200
     31 H132        -4.6260     0.3300    -1.3990 h1         1 CX6       0.071200
@<TRIPOS>BOND
     1     1     4 1   
     2     1    10 1   
     3     2     8 2   
     4     3     4 1   
     5     3     7 1   
     6     3     8 1   
     7     4     5 1   
     8     4    19 1   
     9     5     6 1   
    10     5    20 1   
    11     5    21 1   
    12     6     7 1   
    13     6    22 1   
    14     6    23 1   
    15     7    24 1   
    16     7    25 1   
    17     8     9 1   
    18     9    10 ar  
    19     9    14 ar  
    20    10    11 ar  
    21    11    12 ar  
    22    11    26 1   
    23    12    13 ar  
    24    12    15 1   
    25    13    14 ar  
    26    13    16 1   
    27    14    27 1   
    28    15    18 1   
    29    16    17 1   
    30    17    18 1   
    31    17    28 1   
    32    17    29 1   
    33    18    30 1   
    34    18    31 1   
@<TRIPOS>SUBSTRUCTURE
     1 CX6         1 TEMP              0 ****  ****    0 ROOT
