@<TRIPOS>MOLECULE
CX6
   31    34     1     0     0
SMALL
No Charge or Current Charge


@<TRIPOS>ATOM
      1 O1           1.3610     1.5700    -0.2680 os         1 CX6      -0.338100
      2 O2           1.6650    -2.4970    -0.1360 o          1 CX6      -0.549000
      3 N1           2.6350    -0.4300     0.0450 n          1 CX6      -0.448800
      4 C1           2.4470     0.9510     0.4590 c5         1 CX6       0.337700
      5 C2           3.7910     1.5790     0.0240 c5         1 CX6      -0.089400
      6 C3           4.7850     0.4450     0.4100 c5         1 CX6      -0.096400
      7 C4           4.0460    -0.8390    -0.0710 c5         1 CX6       0.112000
      8 C5           1.5470    -1.2850    -0.0170 c          1 CX6       0.598600
      9 C6           0.2290    -0.5820     0.0120 ca         1 CX6      -0.229600
     10 C7           0.2020     0.8280    -0.1080 ca         1 CX6       0.161100
     11 C8          -1.0280     1.5030    -0.1500 ca         1 CX6      -0.154000
     12 C9          -2.2300     0.7890    -0.0430 ca         1 CX6       0.117100
     13 C10         -2.2070    -0.6190     0.1130 ca         1 CX6       0.009100
     14 C11         -0.9800    -1.3020     0.1210 ca         1 CX6      -0.017000
     15 O3          -3.4280     1.4730    -0.0970 os         1 CX6      -0.327100
     16 O4          -3.3820    -1.3330     0.2450 os         1 CX6      -0.323100
     17 C12         -4.5840    -0.5880     0.5410 c6         1 CX6       0.117600
     18 C13         -4.6280     0.6970    -0.3130 c6         1 CX6       0.118600
     19 H1           2.2870     0.9660     1.5450 h2         1 CX6       0.056700
     20 H21          3.9990     2.5200     0.5450 hc         1 CX6       0.069700
     21 H22          3.8100     1.7800    -1.0540 hc         1 CX6       0.069700
     22 H31          4.9430     0.4180     1.4950 hc         1 CX6       0.057200
     23 H32          5.7680     0.5620    -0.0580 hc         1 CX6       0.057200
     24 H41          4.2840    -1.7120     0.5520 h1         1 CX6       0.058700
     25 H42          4.2910    -1.0770    -1.1150 h1         1 CX6       0.058700
     26 H8          -1.0480     2.5820    -0.2720 ha         1 CX6       0.146000
     27 H11         -0.9720    -2.3860     0.2180 ha         1 CX6       0.151000
     28 H121        -4.5850    -0.3200     1.6070 h1         1 CX6       0.068700
     29 H122        -5.4630    -1.2180     0.3420 h1         1 CX6       0.068700
     30 H131        -5.5070     1.3050    -0.0570 h1         1 CX6       0.071200
     31 H132        -4.6920     0.4270    -1.3770 h1         1 CX6       0.071200
@<TRIPOS>BOND
     1     1     4 1   
     2     1    10 1   
     3     2     8 2   
     4     3     4 1   
     5     3     7 1   
     6     3     8 1   
     7     4     5 1   
     8     4    19 1   
     9     5     6 1   
    10     5    20 1   
    11     5    21 1   
    12     6     7 1   
    13     6    22 1   
    14     6    23 1   
    15     7    24 1   
    16     7    25 1   
    17     8     9 1   
    18     9    10 ar  
    19     9    14 ar  
    20    10    11 ar  
    21    11    12 ar  
    22    11    26 1   
    23    12    13 ar  
    24    12    15 1   
    25    13    14 ar  
    26    13    16 1   
    27    14    27 1   
    28    15    18 1   
    29    16    17 1   
    30    17    18 1   
    31    17    28 1   
    32    17    29 1   
    33    18    30 1   
    34    18    31 1   
@<TRIPOS>SUBSTRUCTURE
     1 CX6         1 TEMP              0 ****  ****    0 ROOT
