@<TRIPOS>MOLECULE
CX9
   46    49     1     0     0
SMALL
No Charge or Current Charge


@<TRIPOS>ATOM
      1 O6           2.5670    -1.9050    -0.8960 o          1 CX9      -0.536000
      2 C6           2.9700    -0.8130    -0.5220 c          1 CX9       0.633600
      3 C5           4.1870    -0.6510     0.2700 cc         1 CX9      -0.356600
      4 N1           2.3040     0.3860    -0.8110 n          1 CX9      -0.373400
      5 N7           5.1070    -1.5610     0.7570 na         1 CX9      -0.110500
      6 C4           4.6200     0.5700     0.6770 cd         1 CX9       0.439900
      7 CAA          5.0830    -3.0220     0.5850 c3         1 CX9       0.061900
      8 C8           6.0610    -0.8390     1.4410 cc         1 CX9       0.446400
      9 N9           5.7830     0.4580     1.4030 nd         1 CX9      -0.706000
     10 N3           3.9360     1.7170     0.3640 n          1 CX9      -0.360300
     11 CAC          4.4200     3.0470     0.8100 c3         1 CX9       0.102300
     12 C2           2.7600     1.6500    -0.3990 c          1 CX9       0.616000
     13 O2           2.1500     2.6710    -0.6880 o          1 CX9      -0.545000
     14 CAK          1.0760     0.3170    -1.6510 c3         1 CX9       0.103000
     15 CAL         -0.2070     0.1660    -0.8100 c3         1 CX9      -0.114400
     16 CA0         -1.4830     0.0930    -1.6720 c3         1 CX9       0.102000
     17 N10         -2.7180    -0.0510    -0.8530 n          1 CX9      -0.382400
     18 CAP         -3.3910     1.1310    -0.4570 c          1 CX9       0.520500
     19 CAR         -3.1750    -1.3610    -0.5640 c          1 CX9       0.631000
     20 OAF         -2.9680     2.2490    -0.7330 o          1 CX9      -0.487000
     21 CAV         -4.6410     0.8980     0.3220 cc         1 CX9       0.117500
     22 NAX         -5.5090     1.8270     0.8450 nc         1 CX9      -0.577000
     23 CAT         -5.0490    -0.3680     0.5930 cd         1 CX9       0.009600
     24 CAJ         -6.4640     1.1250     1.4460 cd         1 CX9       0.389400
     25 NAN         -6.2190    -0.2330     1.3130 na         1 CX9      -0.325500
     26 NAZ         -4.3670    -1.4980     0.1860 n          1 CX9      -0.290000
     27 CAD         -4.8580    -2.8590     0.5060 c3         1 CX9       0.087300
     28 OAH         -2.5590    -2.3480    -0.9440 o          1 CX9      -0.547000
     29 HAA          5.1180    -3.2670    -0.4840 h1         1 CX9       0.064700
     30 HAAA         5.9460    -3.4750     1.0870 h1         1 CX9       0.064700
     31 HAAB         4.1600    -3.4280     1.0180 h1         1 CX9       0.064700
     32 H8           6.9090    -1.3050     1.9300 h5         1 CX9       0.062100
     33 HAC          4.6890     3.6540    -0.0640 h1         1 CX9       0.059033
     34 HACA         3.6280     3.5610     1.3710 h1         1 CX9       0.059033
     35 HACB         5.2990     2.9580     1.4590 h1         1 CX9       0.059033
     36 HAK          0.9980     1.2180    -2.2740 h1         1 CX9       0.072200
     37 HAKA         1.1500    -0.5270    -2.3500 h1         1 CX9       0.072200
     38 HAL         -0.1330    -0.7410    -0.1980 hc         1 CX9       0.064700
     39 HALA        -0.2870     1.0150    -0.1190 hc         1 CX9       0.064700
     40 HA0         -1.5520     0.9970    -2.2930 h1         1 CX9       0.072700
     41 HA0A        -1.3990    -0.7470    -2.3740 h1         1 CX9       0.072700
     42 HAJ         -7.3280     1.5130     1.9740 h5         1 CX9       0.065100
     43 HNAN        -6.8020    -0.9720     1.6820 hn         1 CX9       0.363000
     44 HAD         -5.1630    -3.3660    -0.4180 h1         1 CX9       0.057033
     45 HADA        -4.0590    -3.4390     0.9860 h1         1 CX9       0.057033
     46 HADB        -5.7150    -2.8190     1.1880 h1         1 CX9       0.057033
@<TRIPOS>BOND
     1     1     2 2   
     2     2     3 1   
     3     2     4 1   
     4     3     5 1   
     5     3     6 2   
     6     4    12 1   
     7     4    14 1   
     8     5     7 1   
     9     5     8 1   
    10     6     9 1   
    11     6    10 1   
    12     7    29 1   
    13     7    30 1   
    14     7    31 1   
    15     8     9 2   
    16     8    32 1   
    17    10    11 1   
    18    10    12 1   
    19    11    33 1   
    20    11    34 1   
    21    11    35 1   
    22    12    13 2   
    23    14    15 1   
    24    14    36 1   
    25    14    37 1   
    26    15    16 1   
    27    15    38 1   
    28    15    39 1   
    29    16    17 1   
    30    16    40 1   
    31    16    41 1   
    32    17    18 1   
    33    17    19 1   
    34    18    20 2   
    35    18    21 1   
    36    19    26 1   
    37    19    28 2   
    38    21    22 1   
    39    21    23 2   
    40    22    24 2   
    41    23    25 1   
    42    23    26 1   
    43    24    25 1   
    44    24    42 1   
    45    25    43 1   
    46    26    27 1   
    47    27    44 1   
    48    27    45 1   
    49    27    46 1   
@<TRIPOS>SUBSTRUCTURE
     1 CX9         1 TEMP              0 ****  ****    0 ROOT
