@<TRIPOS>MOLECULE
CX9
   46    49     1     0     0
SMALL
bcc


@<TRIPOS>ATOM
      1 O6           2.4760    -1.9320    -0.9930 o          1 CX9      -0.611500
      2 C6           2.9070    -0.8710    -0.5770 c          1 CX9       0.776100
      3 C5           4.0820    -0.6870     0.2030 cc         1 CX9      -0.371200
      4 N1           2.2630     0.3440    -0.8390 n          1 CX9      -0.507400
      5 N7           5.0180    -1.5750     0.6780 na         1 CX9      -0.131900
      6 C4           4.4890     0.5390     0.6620 cd         1 CX9       0.505200
      7 CAA          5.0590    -3.0070     0.4710 c3         1 CX9       0.032600
      8 C8           5.9000    -0.8460     1.3670 cc         1 CX9       0.446400
      9 N9           5.6160     0.4460     1.3850 nd         1 CX9      -0.706000
     10 N3           3.7830     1.6750     0.3890 n          1 CX9      -0.427300
     11 CAC          4.2070     2.9750     0.8820 c3         1 CX9       0.102300
     12 C2           2.6420     1.5990    -0.3670 c          1 CX9       0.825500
     13 O2           1.9890     2.5940    -0.6160 o          1 CX9      -0.620500
     14 CAK          1.0360     0.2920    -1.6320 c3         1 CX9       0.103000
     15 CAL         -0.2110     0.1620    -0.7680 c3         1 CX9      -0.114400
     16 CA0         -1.4500     0.0960    -1.6500 c3         1 CX9       0.102000
     17 N10         -2.6830    -0.0250    -0.8720 n          1 CX9      -0.516400
     18 CAP         -3.3170     1.1710    -0.4930 c          1 CX9       0.663000
     19 CAR         -3.0670    -1.3170    -0.5310 c          1 CX9       0.840500
     20 OAF         -2.8620     2.2540    -0.8060 o          1 CX9      -0.562500
     21 CAV         -4.5050     0.9460     0.2690 cc         1 CX9       0.182800
     22 NAX         -5.3890     1.8460     0.8030 nc         1 CX9      -0.577000
     23 CAT         -4.8930    -0.3320     0.5670 cd         1 CX9      -0.005000
     24 CAJ         -6.2810     1.1210     1.4020 cd         1 CX9       0.389400
     25 NAN         -6.0250    -0.2220     1.2890 na         1 CX9      -0.325900
     26 NAZ         -4.2310    -1.4540     0.1950 n          1 CX9      -0.357000
     27 CAD         -4.7220    -2.7610     0.6000 c3         1 CX9       0.087300
     28 OAH         -2.4100    -2.2840    -0.8600 o          1 CX9      -0.622500
     29 HAA          5.1480    -3.2360    -0.5880 h1         1 CX9       0.064700
     30 HAAA         5.9250    -3.4040     0.9930 h1         1 CX9       0.064700
     31 HAAB         4.1620    -3.4750     0.8660 h1         1 CX9       0.064700
     32 H8           6.7540    -1.2950     1.8510 h5         1 CX9       0.062100
     33 HAC          4.4480     3.6420     0.0570 h1         1 CX9       0.059033
     34 HACA         3.4300     3.4290     1.4920 h1         1 CX9       0.059033
     35 HACB         5.0950     2.8350     1.4910 h1         1 CX9       0.059033
     36 HAK          0.9870     1.1890    -2.2470 h1         1 CX9       0.072200
     37 HAKA         1.1170    -0.5560    -2.3090 h1         1 CX9       0.072200
     38 HAL         -0.1420    -0.7410    -0.1570 hc         1 CX9       0.064700
     39 HALA        -0.2850     1.0140    -0.0910 hc         1 CX9       0.064700
     40 HA0         -1.5300     0.9960    -2.2560 h1         1 CX9       0.072700
     41 HA0A        -1.3890    -0.7470    -2.3350 h1         1 CX9       0.072700
     42 HAJ         -7.1430     1.4810     1.9410 h5         1 CX9       0.065100
     43 HNAN        -6.5890    -0.9650     1.6760 hn         1 CX9       0.312700
     44 HAD         -4.1060    -3.5320     0.1540 h1         1 CX9       0.057033
     45 HADA        -4.6840    -2.8620     1.6840 h1         1 CX9       0.057033
     46 HADB        -5.7480    -2.8960     0.2590 h1         1 CX9       0.057033
@<TRIPOS>BOND
     1     1     2 2   
     2     2     3 1   
     3     2     4 1   
     4     3     5 1   
     5     3     6 2   
     6     4    12 1   
     7     4    14 1   
     8     5     7 1   
     9     5     8 1   
    10     6     9 1   
    11     6    10 1   
    12     7    29 1   
    13     7    30 1   
    14     7    31 1   
    15     8     9 2   
    16     8    32 1   
    17    10    11 1   
    18    10    12 1   
    19    11    33 1   
    20    11    34 1   
    21    11    35 1   
    22    12    13 2   
    23    14    15 1   
    24    14    36 1   
    25    14    37 1   
    26    15    16 1   
    27    15    38 1   
    28    15    39 1   
    29    16    17 1   
    30    16    40 1   
    31    16    41 1   
    32    17    18 1   
    33    17    19 1   
    34    18    20 2   
    35    18    21 1   
    36    19    26 1   
    37    19    28 2   
    38    21    22 1   
    39    21    23 2   
    40    22    24 2   
    41    23    25 1   
    42    23    26 1   
    43    24    25 1   
    44    24    42 1   
    45    25    43 1   
    46    26    27 1   
    47    27    44 1   
    48    27    45 1   
    49    27    46 1   
@<TRIPOS>SUBSTRUCTURE
     1 CX9         1 TEMP              0 ****  ****    0 ROOT
