@<TRIPOS>MOLECULE
CXA
   27    27     1     0     0
SMALL
bcc


@<TRIPOS>ATOM
      1 C1          -1.2480    -0.2010    -1.4870 ca         1 CXA      -0.056300
      2 C2          -0.4580    -1.2300    -1.9910 ca         1 CXA      -0.119500
      3 C3           0.1640    -1.1120    -3.2270 ca         1 CXA      -0.132500
      4 C4           0.0050     0.0430    -3.9800 ca         1 CXA      -0.146000
      5 C5          -0.7840     1.0760    -3.4900 ca         1 CXA      -0.132500
      6 C6          -1.4030     0.9510    -2.2540 ca         1 CXA      -0.119500
      7 C12         -1.8870    -0.3080    -0.1340 c3         1 CXA      -0.018100
      8 C13         -0.9790     0.2080     0.9930 c3         1 CXA       0.071500
      9 C14         -1.6820     0.0480     2.3670 c          1 CXA       0.916600
     10 O15         -1.1240    -0.6900     3.2020 o          1 CXA      -0.816300
     11 O16         -2.7510     0.6660     2.4950 o          1 CXA      -0.816300
     12 N17          0.2820    -0.5250     1.0060 n7         1 CXA      -0.820100
     13 S18          1.7040     0.1750     0.6440 s6         1 CXA       1.388800
     14 N19          2.2380     0.7220     2.1240 n8         1 CXA      -0.908700
     15 O20          1.4500     1.2600    -0.2880 o          1 CXA      -0.656800
     16 O21          2.6610    -0.8480     0.2640 o          1 CXA      -0.656800
     17 HC2         -0.3300    -2.1360    -1.4110 ha         1 CXA       0.130000
     18 HC3          0.7730    -1.9250    -3.6030 ha         1 CXA       0.113500
     19 HC4          0.4860     0.1360    -4.9450 ha         1 CXA       0.109000
     20 HC5         -0.9200     1.9780    -4.0740 ha         1 CXA       0.113500
     21 HC6         -2.0190     1.7610    -1.8790 ha         1 CXA       0.130000
     22 H121        -2.1460    -1.3490     0.0770 hc         1 CXA       0.057200
     23 H122        -2.8130     0.2680    -0.1100 hc         1 CXA       0.057200
     24 HC13        -0.7990     1.2740     0.8260 h1         1 CXA       0.048700
     25 HN17         0.3290    -1.1140     1.8390 hn         1 CXA       0.465800
     26 H191         3.2000     1.0460     2.0750 hn         1 CXA       0.397800
     27 H192         1.6540     1.4690     2.4860 hn         1 CXA       0.397800
@<TRIPOS>BOND
     1     1     2 ar  
     2     1     6 ar  
     3     1     7 1   
     4     2     3 ar  
     5     2    17 1   
     6     3     4 ar  
     7     3    18 1   
     8     4     5 ar  
     9     4    19 1   
    10     5     6 ar  
    11     5    20 1   
    12     6    21 1   
    13     7     8 1   
    14     7    22 1   
    15     7    23 1   
    16     8     9 1   
    17     8    12 1   
    18     8    24 1   
    19     9    10 1   
    20     9    11 1   
    21    12    13 1   
    22    12    25 1   
    23    13    14 1   
    24    13    15 2   
    25    13    16 2   
    26    14    26 1   
    27    14    27 1   
@<TRIPOS>SUBSTRUCTURE
     1 CXA         1 TEMP              0 ****  ****    0 ROOT
