@<TRIPOS>MOLECULE
CXA
   27    27     1     0     0
SMALL
No Charge or Current Charge


@<TRIPOS>ATOM
      1 C1          -1.1970    -0.4190    -1.6520 ca         1 CXA      -0.056300
      2 C2          -0.4410    -1.4610    -2.2230 ca         1 CXA      -0.101500
      3 C3          -0.0240    -1.3840    -3.5640 ca         1 CXA      -0.114500
      4 C4          -0.3630    -0.2650    -4.3430 ca         1 CXA      -0.128000
      5 C5          -1.1180     0.7770    -3.7800 ca         1 CXA      -0.114500
      6 C6          -1.5350     0.7000    -2.4390 ca         1 CXA      -0.101500
      7 C12         -1.6610    -0.5020    -0.1990 c3         1 CXA      -0.018100
      8 C13         -0.8900     0.4470     0.7530 c3         1 CXA       0.071500
      9 C14         -1.6260     0.5060     2.1470 c          1 CXA       0.706000
     10 O15         -1.4060    -0.3890     2.9550 o          1 CXA      -0.711000
     11 O16         -2.3770     1.4470     2.3740 o          1 CXA      -0.711000
     12 N17          0.5490     0.0210     0.8310 n7         1 CXA      -0.875300
     13 S18          1.6660     1.0080     1.4830 s6         1 CXA       1.247200
     14 N19          2.3570    -0.0590     2.4550 n8         1 CXA      -1.019100
     15 O20          1.0330     1.9850     2.3570 o          1 CXA      -0.586000
     16 O21          2.6590     1.3630     0.4800 o          1 CXA      -0.586000
     17 HC2         -0.1710    -2.3300    -1.6270 ha         1 CXA       0.112000
     18 HC3          0.5610    -2.1910    -3.9980 ha         1 CXA       0.095500
     19 HC4         -0.0410    -0.2050    -5.3800 ha         1 CXA       0.091000
     20 HC5         -1.3820     1.6440    -4.3820 ha         1 CXA       0.095500
     21 HC6         -2.1210     1.5110    -2.0120 ha         1 CXA       0.112000
     22 H121        -1.5830    -1.5310     0.1750 hc         1 CXA       0.057200
     23 H122        -2.7280    -0.2500    -0.1530 hc         1 CXA       0.057200
     24 HC13        -0.9500     1.4560     0.3200 h1         1 CXA       0.048700
     25 HN17         0.6440    -0.7020     1.5440 hn         1 CXA       0.521000
     26 H191         3.3100    -0.0310     2.1000 hn         1 CXA       0.453000
     27 H192         2.4400     0.4950     3.3040 hn         1 CXA       0.453000
@<TRIPOS>BOND
     1     1     2 ar  
     2     1     6 ar  
     3     1     7 1   
     4     2     3 ar  
     5     2    17 1   
     6     3     4 ar  
     7     3    18 1   
     8     4     5 ar  
     9     4    19 1   
    10     5     6 ar  
    11     5    20 1   
    12     6    21 1   
    13     7     8 1   
    14     7    22 1   
    15     7    23 1   
    16     8     9 1   
    17     8    12 1   
    18     8    24 1   
    19     9    10 1   
    20     9    11 1   
    21    12    13 1   
    22    12    25 1   
    23    13    14 1   
    24    13    15 2   
    25    13    16 2   
    26    14    26 1   
    27    14    27 1   
@<TRIPOS>SUBSTRUCTURE
     1 CXA         1 TEMP              0 ****  ****    0 ROOT
