@<TRIPOS>MOLECULE
CXD
   38    40     1     0     0
SMALL
No Charge or Current Charge


@<TRIPOS>ATOM
      1 F01         -7.9110    65.6280    17.9910 f          1 CXD      -0.162000
      2 C02         -8.7450    65.3210    16.9690 ca         1 CXD       0.186000
      3 C03         -8.2100    65.0290    15.6970 ca         1 CXD      -0.144300
      4 C04         -6.7060    65.0420    15.4620 c3         1 CXD       0.164300
      5 N05         -6.2280    66.4000    15.2080 ns         1 CXD      -0.491900
      6 C06         -6.1060    66.9680    13.9660 c          1 CXD       0.650700
      7 O07         -6.3660    66.3420    12.9490 o          1 CXD      -0.626100
      8 C08         -5.6420    68.3760    13.9170 cc         1 CXD      -0.271600
      9 N09         -5.4310    69.1560    12.7880 na         1 CXD      -0.257500
     10 C10         -5.0060    70.3960    13.1890 cc         1 CXD       0.422400
     11 N11         -4.9360    70.4550    14.5090 nd         1 CXD      -0.661000
     12 C12         -5.3270    69.2140    14.9680 cd         1 CXD       0.374000
     13 Cl1         -5.3740    68.8930    16.6760 cl         1 CXD      -0.131000
     14 C14         -9.0830    64.7360    14.6300 ca         1 CXD      -0.047000
     15 C15        -10.4730    64.7340    14.8330 ca         1 CXD      -0.112000
     16 C16        -11.0030    65.0220    16.1020 ca         1 CXD       0.136000
     17 Cl2        -12.7510    65.0070    16.3290 cl         1 CXD      -0.163000
     18 C18        -10.1420    65.3090    17.1780 ca         1 CXD       0.046100
     19 O19        -10.6750    65.5970    18.4190 os         1 CXD      -0.223200
     20 C20        -10.3650    64.8700    19.5480 ca         1 CXD       0.139100
     21 C21         -9.9650    63.5220    19.4660 ca         1 CXD      -0.153000
     22 C22         -9.6620    62.8120    20.6380 ca         1 CXD       0.149000
     23 Cl3         -9.1590    61.1310    20.5330 cl         1 CXD      -0.190000
     24 C24         -9.7620    63.4370    21.8910 ca         1 CXD      -0.097000
     25 C25        -10.1710    64.7820    21.9790 ca         1 CXD       0.025000
     26 C28        -10.4750    65.4940    20.8020 ca         1 CXD      -0.093000
     27 C26        -10.2790    65.4230    23.2610 cg         1 CXD       0.319000
     28 N27        -10.3670    65.9360    24.3070 n1         1 CXD      -0.435000
     29 H041        -6.1860    64.6440    16.3440 h1         1 CXD       0.071700
     30 H042        -6.4490    64.3930    14.6150 h1         1 CXD       0.071700
     31 H14         -8.6840    64.5170    13.6410 ha         1 CXD       0.137000
     32 H05         -5.9940    66.9800    16.0020 hn         1 CXD       0.338500
     33 H09         -5.5630    68.8750    11.8230 hn         1 CXD       0.381000
     34 H10         -4.7720    71.1910    12.4900 h5         1 CXD       0.069100
     35 H15        -11.1420    64.5110    14.0060 ha         1 CXD       0.142000
     36 H21         -9.8930    63.0200    18.5060 ha         1 CXD       0.142000
     37 H28        -10.7920    66.5330    20.8550 ha         1 CXD       0.149000
     38 H24         -9.5240    62.8740    22.7910 ha         1 CXD       0.145000
@<TRIPOS>BOND
     1     1     2 1   
     2     2     3 ar  
     3     2    18 ar  
     4     3     4 1   
     5     3    14 ar  
     6     4     5 1   
     7     4    29 1   
     8     4    30 1   
     9     5     6 1   
    10     5    32 1   
    11     6     7 2   
    12     6     8 1   
    13     8     9 1   
    14     8    12 2   
    15     9    10 1   
    16     9    33 1   
    17    10    11 2   
    18    10    34 1   
    19    11    12 1   
    20    12    13 1   
    21    14    15 ar  
    22    14    31 1   
    23    15    16 ar  
    24    15    35 1   
    25    16    17 1   
    26    16    18 ar  
    27    18    19 1   
    28    19    20 1   
    29    20    21 ar  
    30    20    26 ar  
    31    21    22 ar  
    32    21    36 1   
    33    22    23 1   
    34    22    24 ar  
    35    24    25 ar  
    36    24    38 1   
    37    25    26 ar  
    38    25    27 1   
    39    26    37 1   
    40    27    28 3   
@<TRIPOS>SUBSTRUCTURE
     1 CXD         1 TEMP              0 ****  ****    0 ROOT
