@<TRIPOS>MOLECULE
CXD
   38    40     1     0     0
SMALL
abcg2


@<TRIPOS>ATOM
      1 F01         -7.4000    65.8650    17.6930 f          1 CXD      -0.162000
      2 C02         -8.3440    65.4000    16.8510 ca         1 CXD       0.186000
      3 C03         -7.9740    64.9570    15.5890 ca         1 CXD      -0.144300
      4 C04         -6.5290    64.9950    15.1520 c3         1 CXD       0.164300
      5 N05         -6.0010    66.3450    15.0350 ns         1 CXD      -0.491900
      6 C06         -6.2410    67.1160    13.9560 c          1 CXD       0.650700
      7 O07         -6.8660    66.7200    12.9680 o          1 CXD      -0.626100
      8 C08         -5.7070    68.4860    13.9850 cc         1 CXD      -0.271600
      9 N09         -5.8450    69.2900    12.8750 na         1 CXD      -0.257500
     10 C10         -5.3000    70.4880    13.1460 cc         1 CXD       0.422400
     11 N11         -4.8090    70.5280    14.3780 nd         1 CXD      -0.661000
     12 C12         -5.0570    69.2990    14.8950 cd         1 CXD       0.374000
     13 CL1         -4.5870    68.9110    16.5060 cl         1 CXD      -0.131000
     14 C14         -8.9850    64.4730    14.7630 ca         1 CXD      -0.047000
     15 C15        -10.3090    64.4310    15.1780 ca         1 CXD      -0.112000
     16 C16        -10.6430    64.8840    16.4470 ca         1 CXD       0.136000
     17 CL2        -12.2900    64.8370    16.9970 cl         1 CXD      -0.163000
     18 C18         -9.6570    65.3740    17.3020 ca         1 CXD       0.046100
     19 O19         -9.9550    65.8780    18.5440 os         1 CXD      -0.223200
     20 C20        -10.0620    65.0140    19.6070 ca         1 CXD       0.139100
     21 C21         -9.7970    63.6540    19.5040 ca         1 CXD      -0.153000
     22 C22         -9.9330    62.8620    20.6370 ca         1 CXD       0.149000
     23 CL3         -9.6060    61.1550    20.5100 cl         1 CXD      -0.190000
     24 C24        -10.3190    63.3850    21.8580 ca         1 CXD      -0.097000
     25 C25        -10.5760    64.7580    21.9290 ca         1 CXD       0.025000
     26 C28        -10.4520    65.5820    20.8120 ca         1 CXD      -0.093000
     27 C26        -10.9790    65.3260    23.1780 cg         1 CXD       0.319000
     28 N27        -11.3050    65.7800    24.1860 n1         1 CXD      -0.435000
     29 H041        -5.9050    64.4660    15.8720 h1         1 CXD       0.071700
     30 H042        -6.4380    64.4940    14.1910 h1         1 CXD       0.071700
     31 H14         -8.7270    64.1230    13.7720 ha         1 CXD       0.137000
     32 H05         -5.5050    66.7340    15.8210 hn         1 CXD       0.338500
     33 H09         -6.2890    69.0000    12.0140 hn         1 CXD       0.381000
     34 H10         -5.2770    71.2970    12.4340 h5         1 CXD       0.069100
     35 H15        -11.0820    64.0530    14.5250 ha         1 CXD       0.142000
     36 H21         -9.4920    63.2120    18.5660 ha         1 CXD       0.142000
     37 H28        -10.6540    66.6420    20.8720 ha         1 CXD       0.149000
     38 H24        -10.4210    62.7560    22.7300 ha         1 CXD       0.145000
@<TRIPOS>BOND
     1     1     2 1   
     2     2     3 ar  
     3     2    18 ar  
     4     3     4 1   
     5     3    14 ar  
     6     4     5 1   
     7     4    29 1   
     8     4    30 1   
     9     5     6 1   
    10     5    32 1   
    11     6     7 2   
    12     6     8 1   
    13     8     9 1   
    14     8    12 2   
    15     9    10 1   
    16     9    33 1   
    17    10    11 2   
    18    10    34 1   
    19    11    12 1   
    20    12    13 1   
    21    14    15 ar  
    22    14    31 1   
    23    15    16 ar  
    24    15    35 1   
    25    16    17 1   
    26    16    18 ar  
    27    18    19 1   
    28    19    20 1   
    29    20    21 ar  
    30    20    26 ar  
    31    21    22 ar  
    32    21    36 1   
    33    22    23 1   
    34    22    24 ar  
    35    24    25 ar  
    36    24    38 1   
    37    25    26 ar  
    38    25    27 1   
    39    26    37 1   
    40    27    28 3   
@<TRIPOS>SUBSTRUCTURE
     1 CXD         1 TEMP              0 ****  ****    0 ROOT
