@<TRIPOS>MOLECULE
CXE
   68    67     1     0     0
SMALL
No Charge or Current Charge


@<TRIPOS>ATOM
      1 C1          -2.8540     0.3430   -18.7290 c3         1 CXE      -0.088100
      2 C2          -3.4150     0.6820   -17.3350 c3         1 CXE      -0.075400
      3 C3          -3.5790    -0.5590   -16.4310 c3         1 CXE      -0.075400
      4 C4          -4.1420    -0.2190   -15.0330 c3         1 CXE      -0.075400
      5 C5          -4.3080    -1.4600   -14.1300 c3         1 CXE      -0.074400
      6 C6          -4.8760    -1.1210   -12.7360 c3         1 CXE      -0.076400
      7 C7          -5.0680    -2.3670   -11.8440 c3         1 CXE      -0.074400
      8 C8          -5.6900    -2.0370   -10.4700 c3         1 CXE      -0.076400
      9 C9          -6.0030    -3.2980    -9.6350 c3         1 CXE      -0.080400
     10 C10         -6.6600    -2.9810    -8.2780 c3         1 CXE       0.164600
     11 O11         -7.1190    -4.2230    -7.7270 os         1 CXE      -0.443000
     12 C12         -7.8390    -4.1070    -6.4830 c3         1 CXE       0.166600
     13 C13         -8.4990    -5.4710    -6.1670 c3         1 CXE       0.162600
     14 O14         -9.5620    -5.6900    -7.1150 os         1 CXE      -0.431000
     15 C15        -10.2220    -6.9660    -7.0110 c3         1 CXE       0.163600
     16 C16        -11.2790    -7.0680    -8.1370 c3         1 CXE       0.163600
     17 O17        -10.6020    -7.1940    -9.4030 os         1 CXE      -0.432000
     18 C18        -11.4690    -7.1780   -10.5550 c3         1 CXE       0.163600
     19 C19        -10.6080    -7.3030   -11.8360 c3         1 CXE       0.163600
     20 O20         -9.8510    -6.0890   -12.0170 os         1 CXE      -0.428000
     21 C21         -8.9720    -6.0970   -13.1590 c3         1 CXE       0.161600
     22 C22         -8.1690    -4.7750   -13.1850 c3         1 CXE       0.163600
     23 O23         -9.0450    -3.6940   -13.5640 os         1 CXE      -0.457000
     24 C24         -8.4150    -2.3950   -13.5810 c3         1 CXE       0.113600
     25 C25         -9.4730    -1.3550   -14.0190 c3         1 CXE       0.165600
     26 O26        -10.7410    -1.7160   -13.4560 oh         1 CXE      -0.720000
     27 H011        -3.5200    -0.3490   -19.2580 hc         1 CXE       0.031367
     28 H012        -1.8650    -0.1230   -18.6470 hc         1 CXE       0.031367
     29 H013        -2.7550     1.2530   -19.3330 hc         1 CXE       0.031367
     30 H021        -2.7460     1.4020   -16.8470 hc         1 CXE       0.036700
     31 H022        -4.3870     1.1780   -17.4520 hc         1 CXE       0.036700
     32 H031        -4.2470    -1.2770   -16.9230 hc         1 CXE       0.036700
     33 H032        -2.6060    -1.0530   -16.3160 hc         1 CXE       0.036700
     34 H041        -5.1150     0.2750   -15.1480 hc         1 CXE       0.037200
     35 H042        -3.4740     0.4990   -14.5400 hc         1 CXE       0.037200
     36 H051        -4.9730    -2.1780   -14.6260 hc         1 CXE       0.036200
     37 H052        -3.3350    -1.9540   -14.0120 hc         1 CXE       0.036200
     38 H061        -5.8410    -0.6130   -12.8570 hc         1 CXE       0.038200
     39 H062        -4.2040    -0.4160   -12.2310 hc         1 CXE       0.038200
     40 H071        -4.0980    -2.8570   -11.6930 hc         1 CXE       0.036200
     41 H072        -5.7090    -3.0860   -12.3680 hc         1 CXE       0.036200
     42 H081        -6.6190    -1.4720   -10.6210 hc         1 CXE       0.038700
     43 H082        -5.0080    -1.3870    -9.9080 hc         1 CXE       0.038700
     44 H091        -6.6760    -3.9450   -10.2080 hc         1 CXE       0.052700
     45 H092        -5.0790    -3.8640    -9.4630 hc         1 CXE       0.052700
     46 H101        -7.5050    -2.2970    -8.4330 h1         1 CXE       0.018200
     47 H102        -5.9340    -2.4950    -7.6120 h1         1 CXE       0.018200
     48 H121        -7.1530    -3.8360    -5.6690 h1         1 CXE       0.026700
     49 H122        -8.6180    -3.3360    -6.5470 h1         1 CXE       0.026700
     50 H131        -8.8970    -5.4500    -5.1440 h1         1 CXE       0.025700
     51 H132        -7.7440    -6.2660    -6.2270 h1         1 CXE       0.025700
     52 H151        -9.5030    -7.7910    -7.1060 h1         1 CXE       0.025200
     53 H152       -10.7230    -7.0580    -6.0380 h1         1 CXE       0.025200
     54 H161       -11.9170    -6.1740    -8.1180 h1         1 CXE       0.026200
     55 H162       -11.9140    -7.9450    -7.9560 h1         1 CXE       0.026200
     56 H181       -12.1710    -8.0200   -10.5150 h1         1 CXE       0.027200
     57 H182       -12.0520    -6.2480   -10.5960 h1         1 CXE       0.027200
     58 H191       -11.2710    -7.4700   -12.6950 h1         1 CXE       0.025200
     59 H192        -9.9420    -8.1720   -11.7440 h1         1 CXE       0.025200
     60 H211        -8.2660    -6.9350   -13.0880 h1         1 CXE       0.026200
     61 H212        -9.5380    -6.2060   -14.0930 h1         1 CXE       0.026200
     62 H221        -7.3490    -4.8700   -13.9100 h1         1 CXE       0.032200
     63 H222        -7.7300    -4.5970   -12.1960 h1         1 CXE       0.032200
     64 H241        -8.0500    -2.1340   -12.5790 h1         1 CXE       0.031200
     65 H242        -7.5650    -2.3720   -14.2760 h1         1 CXE       0.031200
     66 H251        -9.5320    -1.3530   -15.1160 h1         1 CXE       0.043700
     67 H252        -9.1640    -0.3510   -13.6970 h1         1 CXE       0.043700
     68 H26        -10.6460    -2.6920   -13.3160 ho         1 CXE       0.519000
@<TRIPOS>BOND
     1     1     2 1   
     2     1    27 1   
     3     1    28 1   
     4     1    29 1   
     5     2     3 1   
     6     2    30 1   
     7     2    31 1   
     8     3     4 1   
     9     3    32 1   
    10     3    33 1   
    11     4     5 1   
    12     4    34 1   
    13     4    35 1   
    14     5     6 1   
    15     5    36 1   
    16     5    37 1   
    17     6     7 1   
    18     6    38 1   
    19     6    39 1   
    20     7     8 1   
    21     7    40 1   
    22     7    41 1   
    23     8     9 1   
    24     8    42 1   
    25     8    43 1   
    26     9    10 1   
    27     9    44 1   
    28     9    45 1   
    29    10    11 1   
    30    10    46 1   
    31    10    47 1   
    32    11    12 1   
    33    12    13 1   
    34    12    48 1   
    35    12    49 1   
    36    13    14 1   
    37    13    50 1   
    38    13    51 1   
    39    14    15 1   
    40    15    16 1   
    41    15    52 1   
    42    15    53 1   
    43    16    17 1   
    44    16    54 1   
    45    16    55 1   
    46    17    18 1   
    47    18    19 1   
    48    18    56 1   
    49    18    57 1   
    50    19    20 1   
    51    19    58 1   
    52    19    59 1   
    53    20    21 1   
    54    21    22 1   
    55    21    60 1   
    56    21    61 1   
    57    22    23 1   
    58    22    62 1   
    59    22    63 1   
    60    23    24 1   
    61    24    25 1   
    62    24    64 1   
    63    24    65 1   
    64    25    26 1   
    65    25    66 1   
    66    25    67 1   
    67    26    68 1   
@<TRIPOS>SUBSTRUCTURE
     1 CXE         1 TEMP              0 ****  ****    0 ROOT
