@<TRIPOS>MOLECULE
CXE
   68    67     1     0     0
SMALL
abcg2


@<TRIPOS>ATOM
      1 C1          -2.0870     0.6040   -18.5760 c3         1 CXE      -0.088100
      2 C2          -2.5690     0.8940   -17.1610 c3         1 CXE      -0.075400
      3 C3          -3.1360    -0.3380   -16.4660 c3         1 CXE      -0.075400
      4 C4          -3.6240    -0.0610   -15.0500 c3         1 CXE      -0.075400
      5 C5          -4.1860    -1.2960   -14.3550 c3         1 CXE      -0.074400
      6 C6          -4.6870    -1.0150   -12.9440 c3         1 CXE      -0.076400
      7 C7          -5.2230    -2.2540   -12.2390 c3         1 CXE      -0.074400
      8 C8          -5.7710    -1.9570   -10.8470 c3         1 CXE      -0.076400
      9 C9          -6.2820    -3.2000   -10.1300 c3         1 CXE      -0.080400
     10 C10         -6.8820    -2.8730    -8.7770 c3         1 CXE       0.164600
     11 O11         -7.3620    -4.0550    -8.1860 os         1 CXE      -0.443000
     12 C12         -7.9820    -3.8470    -6.9440 c3         1 CXE       0.166600
     13 C13         -8.5240    -5.1580    -6.4330 c3         1 CXE       0.162600
     14 O14         -9.5340    -5.6060    -7.2990 os         1 CXE      -0.431000
     15 C15        -10.0370    -6.8730    -6.9670 c3         1 CXE       0.163600
     16 C16        -11.0790    -7.2730    -7.9810 c3         1 CXE       0.163600
     17 O17        -10.4730    -7.4200    -9.2390 os         1 CXE      -0.432000
     18 C18        -11.3950    -7.6020   -10.2820 c3         1 CXE       0.163600
     19 C19        -10.6660    -7.6490   -11.6010 c3         1 CXE       0.163600
     20 O20        -10.0420    -6.4130   -11.8360 os         1 CXE      -0.428000
     21 C21         -9.3880    -6.3540   -13.0760 c3         1 CXE       0.161600
     22 C22         -8.6660    -5.0370   -13.2040 c3         1 CXE       0.163600
     23 O23         -9.5930    -3.9810   -13.2340 os         1 CXE      -0.457000
     24 C24         -8.9860    -2.7120   -13.2610 c3         1 CXE       0.113600
     25 C25        -10.0670    -1.6570   -13.2430 c3         1 CXE       0.165600
     26 O26        -10.8330    -1.6770   -12.0600 oh         1 CXE      -0.720000
     27 H011        -2.8970     0.2110   -19.1940 hc         1 CXE       0.031367
     28 H012        -1.2850    -0.1360   -18.5760 hc         1 CXE       0.031367
     29 H013        -1.7070     1.5020   -19.0640 hc         1 CXE       0.031367
     30 H021        -1.7440     1.2970   -16.5660 hc         1 CXE       0.036700
     31 H022        -3.3330     1.6780   -17.1890 hc         1 CXE       0.036700
     32 H031        -3.9620    -0.7420   -17.0630 hc         1 CXE       0.036700
     33 H032        -2.3700    -1.1220   -16.4390 hc         1 CXE       0.036700
     34 H041        -4.3920     0.7200   -15.0780 hc         1 CXE       0.037200
     35 H042        -2.8000     0.3460   -14.4540 hc         1 CXE       0.037200
     36 H051        -5.0050    -1.7090   -14.9540 hc         1 CXE       0.036200
     37 H052        -3.4140    -2.0730   -14.3180 hc         1 CXE       0.036200
     38 H061        -5.4730    -0.2520   -12.9860 hc         1 CXE       0.038200
     39 H062        -3.8760    -0.5820   -12.3470 hc         1 CXE       0.038200
     40 H071        -4.4300    -3.0060   -12.1660 hc         1 CXE       0.036200
     41 H072        -6.0120    -2.7050   -12.8520 hc         1 CXE       0.036200
     42 H081        -6.5800    -1.2220   -10.9300 hc         1 CXE       0.038700
     43 H082        -4.9900    -1.4820   -10.2430 hc         1 CXE       0.038700
     44 H091        -7.0410    -3.6940   -10.7470 hc         1 CXE       0.052700
     45 H092        -5.4660    -3.9190   -10.0060 hc         1 CXE       0.052700
     46 H101        -7.6970    -2.1440    -8.9000 h1         1 CXE       0.018200
     47 H102        -6.1270    -2.3940    -8.1370 h1         1 CXE       0.018200
     48 H121        -7.2720    -3.4500    -6.2040 h1         1 CXE       0.026700
     49 H122        -8.7960    -3.1130    -7.0270 h1         1 CXE       0.026700
     50 H131        -8.9080    -5.0050    -5.4150 h1         1 CXE       0.025700
     51 H132        -7.7120    -5.8960    -6.3590 h1         1 CXE       0.025700
     52 H151        -9.2320    -7.6220    -6.9380 h1         1 CXE       0.025200
     53 H152       -10.5050    -6.8720    -5.9720 h1         1 CXE       0.025200
     54 H161       -11.8740    -6.5140    -8.0150 h1         1 CXE       0.026200
     55 H162       -11.5480    -8.2100    -7.6490 h1         1 CXE       0.026200
     56 H181       -11.9550    -8.5400   -10.1660 h1         1 CXE       0.027200
     57 H182       -12.1350    -6.7890   -10.2960 h1         1 CXE       0.027200
     58 H191       -11.3990    -7.8820   -12.3850 h1         1 CXE       0.025200
     59 H192        -9.9310    -8.4670   -11.5990 h1         1 CXE       0.025200
     60 H211        -8.6420    -7.1550   -13.1740 h1         1 CXE       0.026200
     61 H212       -10.0990    -6.4780   -13.9060 h1         1 CXE       0.026200
     62 H221        -8.0630    -5.0580   -14.1220 h1         1 CXE       0.032200
     63 H222        -7.9650    -4.9190   -12.3660 h1         1 CXE       0.032200
     64 H241        -8.3230    -2.5810   -12.3920 h1         1 CXE       0.031200
     65 H242        -8.3630    -2.5850   -14.1590 h1         1 CXE       0.031200
     66 H251       -10.6960    -1.7650   -14.1360 h1         1 CXE       0.043700
     67 H252        -9.5910    -0.6770   -13.3040 h1         1 CXE       0.043700
     68 H26        -11.2160    -2.5550   -11.9730 ho         1 CXE       0.519000
@<TRIPOS>BOND
     1     1     2 1   
     2     1    27 1   
     3     1    28 1   
     4     1    29 1   
     5     2     3 1   
     6     2    30 1   
     7     2    31 1   
     8     3     4 1   
     9     3    32 1   
    10     3    33 1   
    11     4     5 1   
    12     4    34 1   
    13     4    35 1   
    14     5     6 1   
    15     5    36 1   
    16     5    37 1   
    17     6     7 1   
    18     6    38 1   
    19     6    39 1   
    20     7     8 1   
    21     7    40 1   
    22     7    41 1   
    23     8     9 1   
    24     8    42 1   
    25     8    43 1   
    26     9    10 1   
    27     9    44 1   
    28     9    45 1   
    29    10    11 1   
    30    10    46 1   
    31    10    47 1   
    32    11    12 1   
    33    12    13 1   
    34    12    48 1   
    35    12    49 1   
    36    13    14 1   
    37    13    50 1   
    38    13    51 1   
    39    14    15 1   
    40    15    16 1   
    41    15    52 1   
    42    15    53 1   
    43    16    17 1   
    44    16    54 1   
    45    16    55 1   
    46    17    18 1   
    47    18    19 1   
    48    18    56 1   
    49    18    57 1   
    50    19    20 1   
    51    19    58 1   
    52    19    59 1   
    53    20    21 1   
    54    21    22 1   
    55    21    60 1   
    56    21    61 1   
    57    22    23 1   
    58    22    62 1   
    59    22    63 1   
    60    23    24 1   
    61    24    25 1   
    62    24    64 1   
    63    24    65 1   
    64    25    26 1   
    65    25    66 1   
    66    25    67 1   
    67    26    68 1   
@<TRIPOS>SUBSTRUCTURE
     1 CXE         1 TEMP              0 ****  ****    0 ROOT
