@<TRIPOS>MOLECULE
CXF
   22    22     1     0     0
SMALL
abcg2


@<TRIPOS>ATOM
      1 C1          -0.2330     0.0510    -0.2520 c6         1 CXF       0.104700
      2 C2          -1.3790    -0.0430     0.7500 c6         1 CXF      -0.089400
      3 C3          -0.9910     0.5740     2.0900 c6         1 CXF      -0.071900
      4 C4           0.2800    -0.0550     2.6510 c6         1 CXF      -0.076400
      5 C5           1.4250     0.0350     1.6480 c6         1 CXF      -0.071900
      6 C6           1.0390    -0.5860     0.3090 c6         1 CXF      -0.089400
      7 N8          -0.6220    -0.5550    -1.5130 ns         1 CXF      -0.513900
      8 C7          -0.1570    -0.1790    -2.7070 c          1 CXF       0.597900
      9 O9           0.6050     0.7520    -2.9150 o          1 CXF      -0.606100
     10 H1          -0.0340     1.1090    -0.4490 h1         1 CXF       0.077700
     11 H21         -2.2650     0.4530     0.3450 hc         1 CXF       0.043950
     12 H22         -1.6450    -1.0960     0.8990 hc         1 CXF       0.043950
     13 H31         -0.8360     1.6510     1.9610 hc         1 CXF       0.043200
     14 H32         -1.8160     0.4650     2.7980 hc         1 CXF       0.043200
     15 H41          0.5590     0.4330     3.5890 hc         1 CXF       0.040200
     16 H42          0.0890    -1.1060     2.8910 hc         1 CXF       0.040200
     17 H51          1.6940     1.0860     1.4960 hc         1 CXF       0.043200
     18 H52          2.3170    -0.4580     2.0410 hc         1 CXF       0.043200
     19 H61          0.8680    -1.6610     0.4360 hc         1 CXF       0.043950
     20 H62          1.8530    -0.4780    -0.4120 hc         1 CXF       0.043950
     21 HN8         -1.2050    -1.3770    -1.4830 hn         1 CXF       0.307500
     22 H7          -0.5520    -0.8080    -3.5190 h5         1 CXF       0.003200
@<TRIPOS>BOND
     1     1     2 1   
     2     1     6 1   
     3     1     7 1   
     4     1    10 1   
     5     2     3 1   
     6     2    11 1   
     7     2    12 1   
     8     3     4 1   
     9     3    13 1   
    10     3    14 1   
    11     4     5 1   
    12     4    15 1   
    13     4    16 1   
    14     5     6 1   
    15     5    17 1   
    16     5    18 1   
    17     6    19 1   
    18     6    20 1   
    19     7     8 1   
    20     7    21 1   
    21     8     9 2   
    22     8    22 1   
@<TRIPOS>SUBSTRUCTURE
     1 CXF         1 TEMP              0 ****  ****    0 ROOT
