@<TRIPOS>MOLECULE
CXF
   22    22     1     0     0
SMALL
No Charge or Current Charge


@<TRIPOS>ATOM
      1 C1          -0.2490     0.0860    -0.2700 c6         1 CXF       0.104700
      2 C2          -1.3980    -0.0520     0.7630 c6         1 CXF      -0.089400
      3 C3          -1.0100     0.5700     2.1280 c6         1 CXF      -0.071900
      4 C4           0.2900    -0.0610     2.6810 c6         1 CXF      -0.076400
      5 C5           1.4440     0.0500     1.6540 c6         1 CXF      -0.071900
      6 C6           1.0420    -0.5680     0.2910 c6         1 CXF      -0.089400
      7 N8          -0.6360    -0.5390    -1.5410 ns         1 CXF      -0.513900
      8 C7          -0.1160    -0.2340    -2.7790 c          1 CXF       0.597900
      9 O9           0.7360     0.6290    -2.9480 o          1 CXF      -0.606100
     10 H1          -0.0610     1.1570    -0.4480 h1         1 CXF       0.077700
     11 H21         -2.3030     0.4380     0.3800 hc         1 CXF       0.043950
     12 H22         -1.6520    -1.1130     0.9020 hc         1 CXF       0.043950
     13 H31         -0.8770     1.6550     2.0160 hc         1 CXF       0.043200
     14 H32         -1.8280     0.4300     2.8480 hc         1 CXF       0.043200
     15 H41          0.5760     0.4330     3.6190 hc         1 CXF       0.040200
     16 H42          0.1140    -1.1180     2.9250 hc         1 CXF       0.040200
     17 H51          1.7160     1.1060     1.5160 hc         1 CXF       0.043200
     18 H52          2.3390    -0.4540     2.0430 hc         1 CXF       0.043200
     19 H61          0.8930    -1.6500     0.4070 hc         1 CXF       0.043950
     20 H62          1.8660    -0.4420    -0.4240 hc         1 CXF       0.043950
     21 HN8         -1.3380    -1.2700    -1.5200 hn         1 CXF       0.307500
     22 H7          -0.5530    -0.8460    -3.5900 h5         1 CXF       0.003200
@<TRIPOS>BOND
     1     1     2 1   
     2     1     6 1   
     3     1     7 1   
     4     1    10 1   
     5     2     3 1   
     6     2    11 1   
     7     2    12 1   
     8     3     4 1   
     9     3    13 1   
    10     3    14 1   
    11     4     5 1   
    12     4    15 1   
    13     4    16 1   
    14     5     6 1   
    15     5    17 1   
    16     5    18 1   
    17     6    19 1   
    18     6    20 1   
    19     7     8 1   
    20     7    21 1   
    21     8     9 2   
    22     8    22 1   
@<TRIPOS>SUBSTRUCTURE
     1 CXF         1 TEMP              0 ****  ****    0 ROOT
