@<TRIPOS>MOLECULE
CXG
  106   108     1     0     0
SMALL
abcg2


@<TRIPOS>ATOM
      1 CAA         -2.0840     1.9200    -0.6320 c3         1 CXG      -0.101400
      2 CBK         -4.5310     1.5590    -0.2100 c          1 CXG       0.572100
      3 OAI         -4.7350     2.6880     0.2140 o          1 CXG      -0.617100
      4 N           -5.4780     0.7710    -0.7340 ns         1 CXG      -0.477900
      5 CA          -6.8880     1.0700    -0.6690 c3         1 CXG       0.037700
      6 CB          -7.4810     1.4910    -2.0430 c3         1 CXG      -0.046000
      7 CG1         -6.7740     2.7700    -2.4980 c3         1 CXG      -0.085767
      8 CAE         -7.2910     0.4100    -3.1070 c3         1 CXG      -0.085767
      9 CG2         -8.9730     1.7890    -1.8830 c3         1 CXG      -0.085767
     10 C           -7.5800    -0.1550    -0.0720 c          1 CXG       0.586100
     11 O           -7.2790    -1.2890    -0.4160 o          1 CXG      -0.602100
     12 NBG         -8.5340     0.0990     0.8290 ns         1 CXG      -0.500900
     13 CBA         -2.9050     0.5880     1.3730 c3         1 CXG      -0.020100
     14 CBO         -3.9310    -0.3550     1.9390 ca         1 CXG      -0.087300
     15 CAT         -3.7780    -1.7340     1.8150 ca         1 CXG      -0.097000
     16 CAP         -4.7360    -2.6040     2.3140 ca         1 CXG      -0.112000
     17 CAN         -5.8670    -2.1070     2.9480 ca         1 CXG      -0.102000
     18 CAQ         -6.0280    -0.7360     3.0840 ca         1 CXG      -0.112000
     19 CAU         -5.0660     0.1310     2.5840 ca         1 CXG      -0.097000
     20 OAM         -3.0610    -0.2930    -0.8180 oh         1 CXG      -0.653000
     21 CBC          0.3400     2.2320    -1.2610 c3         1 CXG       0.163800
     22 NBW          1.7150     1.8900    -0.9300 n3         1 CXG      -0.460600
     23 NBH          1.9890     0.5540    -1.1330 ns         1 CXG      -0.387300
     24 CBN          2.3110    -0.2560    -0.1060 c          1 CXG       0.609100
     25 OAL          2.2750     0.0820     1.0620 o          1 CXG      -0.575100
     26 CBV          2.7240    -1.6740    -0.5140 c3         1 CXG       0.051700
     27 CBY          1.5100    -2.6350    -0.7040 c3         1 CXG      -0.049000
     28 CAF          2.0440    -4.0500    -0.9380 c3         1 CXG      -0.089100
     29 CAG          0.5980    -2.6370     0.5240 c3         1 CXG      -0.089100
     30 CAH          0.6980    -2.2280    -1.9360 c3         1 CXG      -0.089100
     31 NBF          3.6500    -2.1400     0.4840 ns         1 CXG      -0.487900
     32 CBL          4.8660    -2.6410     0.1940 c          1 CXG       0.643100
     33 OAJ          5.3030    -2.8450    -0.9200 o          1 CXG      -0.555000
     34 OBJ          5.5380    -2.9080     1.3190 os         1 CXG      -0.451100
     35 CAB          6.8020    -3.5450     1.1810 c3         1 CXG       0.169900
     36 CBB          2.7080     2.7210    -1.6020 c3         1 CXG       0.202100
     37 CBP          4.0890     2.3180    -1.1730 ca         1 CXG      -0.095300
     38 CAW          4.9290     1.6210    -2.0310 ca         1 CXG      -0.091000
     39 CAY          6.1650     1.1610    -1.6030 ca         1 CXG      -0.100000
     40 CAX          4.5230     2.5590     0.1270 ca         1 CXG      -0.091000
     41 CAZ          5.7600     2.1100     0.5560 ca         1 CXG      -0.100000
     42 CBQ          6.5990     1.3920    -0.2990 cp         1 CXG      -0.027000
     43 CBR          7.9050     0.8820     0.1630 cp         1 CXG      -0.035000
     44 CAV          8.7010     1.6240     1.0370 ca         1 CXG      -0.099500
     45 C1          -3.1310     0.9260    -0.1130 c3         1 CXG       0.111000
     46 CAR          9.9280     1.1390     1.4650 ca         1 CXG      -0.114500
     47 C9          -9.3060    -0.9480     1.4520 c3         1 CXG       0.093300
     48 CAO         10.3850    -0.0970     1.0260 ca         1 CXG      -0.108000
     49 C24         -0.6480     1.4740    -0.3910 c3         1 CXG      -0.081400
     50 CAS          9.6010    -0.8450     0.1570 ca         1 CXG      -0.114500
     51 C53          8.3730    -0.3610    -0.2680 ca         1 CXG      -0.099500
     52 HAA1        -2.2530     2.0600    -1.7080 hc         1 CXG       0.057700
     53 HAA2        -2.2510     2.8970    -0.1780 hc         1 CXG       0.057700
     54 H241        -0.3720     1.6230     0.6550 hc         1 CXG       0.064200
     55 H242        -0.5580     0.4040    -0.5900 hc         1 CXG       0.064200
     56 H           -5.2200    -0.1800    -0.9520 hn         1 CXG       0.347500
     57 HA          -7.0110     1.9190     0.0080 h1         1 CXG       0.078700
     58 HAE1        -7.8090    -0.5140    -2.8540 hc         1 CXG       0.038144
     59 HAE2        -7.6900     0.7620    -4.0610 hc         1 CXG       0.038144
     60 HAE3        -6.2370     0.1750    -3.2640 hc         1 CXG       0.038144
     61 HG21        -9.1530     2.5430    -1.1130 hc         1 CXG       0.038144
     62 HG22        -9.3790     2.1750    -2.8190 hc         1 CXG       0.038144
     63 HG23        -9.5500     0.9000    -1.6230 hc         1 CXG       0.038144
     64 HG11        -5.7110     2.6070    -2.6730 hc         1 CXG       0.038144
     65 HG12        -7.2120     3.1230    -3.4330 hc         1 CXG       0.038144
     66 HG13        -6.8750     3.5660    -1.7580 hc         1 CXG       0.038144
     67 HBG         -8.7170     1.0500     1.0990 hn         1 CXG       0.317500
     68 H91C        -9.8690    -1.5240     0.7170 h1         1 CXG       0.041033
     69 H92C        -8.6680    -1.6340     2.0100 h1         1 CXG       0.041033
     70 H93C       -10.0100    -0.4930     2.1430 h1         1 CXG       0.041033
     71 HBA1        -2.9010     1.5200     1.9420 hc         1 CXG       0.069200
     72 HBA2        -1.9110     0.1490     1.4750 hc         1 CXG       0.069200
     73 HAT         -2.8960    -2.1320     1.3280 ha         1 CXG       0.115500
     74 HAU         -5.2010     1.2000     2.7000 ha         1 CXG       0.115500
     75 HAP         -4.5970    -3.6730     2.2100 ha         1 CXG       0.108500
     76 HAN         -6.6150    -2.7850     3.3400 ha         1 CXG       0.108000
     77 HAQ         -6.9020    -0.3370     3.5820 ha         1 CXG       0.108500
     78 HAM         -2.9400    -0.1110    -1.7560 ho         1 CXG       0.446000
     79 HBC1         0.2350     3.3060    -1.0920 h1         1 CXG       0.035200
     80 HBC2         0.1210     2.0560    -2.3270 h1         1 CXG       0.035200
     81 HBH          2.0830     0.2150    -2.0840 hn         1 CXG       0.303500
     82 HBB1         2.6200     2.6570    -2.6980 h1         1 CXG       0.045200
     83 HBB2         2.5020     3.7580    -1.3280 h1         1 CXG       0.045200
     84 HBV          3.2610    -1.6340    -1.4660 h1         1 CXG       0.084700
     85 HBF          3.4370    -1.9260     1.4460 hn         1 CXG       0.347500
     86 HAH1         1.3180    -2.2010    -2.8360 hc         1 CXG       0.039589
     87 HAH2        -0.0960    -2.9550    -2.1090 hc         1 CXG       0.039589
     88 HAH3         0.2180    -1.2560    -1.8260 hc         1 CXG       0.039589
     89 HAF1         2.5570    -4.4430    -0.0610 hc         1 CXG       0.039589
     90 HAF2         1.2160    -4.7250    -1.1620 hc         1 CXG       0.039589
     91 HAF3         2.7370    -4.0850    -1.7810 hc         1 CXG       0.039589
     92 HAG1         0.1310    -1.6660     0.6930 hc         1 CXG       0.039589
     93 HAG2        -0.2050    -3.3640     0.3840 hc         1 CXG       0.039589
     94 HAG3         1.1320    -2.9180     1.4330 hc         1 CXG       0.039589
     95 HAB1         7.1630    -3.7100     2.1920 h1         1 CXG       0.047033
     96 HAB2         6.7170    -4.5050     0.6720 h1         1 CXG       0.047033
     97 HAB3         7.5160    -2.9200     0.6480 h1         1 CXG       0.047033
     98 HAW          4.6150     1.4260    -3.0500 ha         1 CXG       0.115500
     99 HAX          3.8800     3.0910     0.8170 ha         1 CXG       0.115500
    100 HAY          6.7980     0.6270    -2.2990 ha         1 CXG       0.118500
    101 HAZ          6.0630     2.2940     1.5800 ha         1 CXG       0.118500
    102 HAV          8.3700     2.5990     1.3720 ha         1 CXG       0.119000
    103 H53          7.7570    -0.9680    -0.9210 ha         1 CXG       0.119000
    104 HAR         10.5320     1.7320     2.1400 ha         1 CXG       0.111500
    105 HAO         11.3430    -0.4740     1.3590 ha         1 CXG       0.112000
    106 HAS          9.9420    -1.8130    -0.1850 ha         1 CXG       0.111500
@<TRIPOS>BOND
     1     1    45 1   
     2     1    49 1   
     3     1    52 1   
     4     1    53 1   
     5     2     3 2   
     6     2     4 1   
     7     2    45 1   
     8     4     5 1   
     9     4    56 1   
    10     5     6 1   
    11     5    10 1   
    12     5    57 1   
    13     6     7 1   
    14     6     8 1   
    15     6     9 1   
    16     7    64 1   
    17     7    65 1   
    18     7    66 1   
    19     8    58 1   
    20     8    59 1   
    21     8    60 1   
    22     9    61 1   
    23     9    62 1   
    24     9    63 1   
    25    10    11 2   
    26    10    12 1   
    27    12    47 1   
    28    12    67 1   
    29    13    14 1   
    30    13    45 1   
    31    13    71 1   
    32    13    72 1   
    33    14    15 ar  
    34    14    19 ar  
    35    15    16 ar  
    36    15    73 1   
    37    16    17 ar  
    38    16    75 1   
    39    17    18 ar  
    40    17    76 1   
    41    18    19 ar  
    42    18    77 1   
    43    19    74 1   
    44    20    45 1   
    45    20    78 1   
    46    21    22 1   
    47    21    49 1   
    48    21    79 1   
    49    21    80 1   
    50    22    23 1   
    51    22    36 1   
    52    23    24 1   
    53    23    81 1   
    54    24    25 2   
    55    24    26 1   
    56    26    27 1   
    57    26    31 1   
    58    26    84 1   
    59    27    28 1   
    60    27    29 1   
    61    27    30 1   
    62    28    89 1   
    63    28    90 1   
    64    28    91 1   
    65    29    92 1   
    66    29    93 1   
    67    29    94 1   
    68    30    86 1   
    69    30    87 1   
    70    30    88 1   
    71    31    32 1   
    72    31    85 1   
    73    32    33 2   
    74    32    34 1   
    75    34    35 1   
    76    35    95 1   
    77    35    96 1   
    78    35    97 1   
    79    36    37 1   
    80    36    82 1   
    81    36    83 1   
    82    37    38 ar  
    83    37    40 ar  
    84    38    39 ar  
    85    38    98 1   
    86    39    42 ar  
    87    39   100 1   
    88    40    41 ar  
    89    40    99 1   
    90    41    42 ar  
    91    41   101 1   
    92    42    43 1   
    93    43    44 ar  
    94    43    51 ar  
    95    44    46 ar  
    96    44   102 1   
    97    46    48 ar  
    98    46   104 1   
    99    47    68 1   
   100    47    69 1   
   101    47    70 1   
   102    48    50 ar  
   103    48   105 1   
   104    49    54 1   
   105    49    55 1   
   106    50    51 ar  
   107    50   106 1   
   108    51   103 1   
@<TRIPOS>SUBSTRUCTURE
     1 CXG         1 TEMP              0 ****  ****    0 ROOT
