@<TRIPOS>MOLECULE
CXG
  106   108     1     0     0
SMALL
No Charge or Current Charge


@<TRIPOS>ATOM
      1 CAA         -2.2670     1.8370    -0.3170 c3         1 CXG      -0.101400
      2 CBK         -4.8020     1.5620    -0.0470 c          1 CXG       0.572100
      3 OAI         -5.0630     2.7540     0.0760 o          1 CXG      -0.617100
      4 N           -5.7280     0.6590    -0.5230 ns         1 CXG      -0.477900
      5 CA          -7.1560     0.9420    -0.7890 c3         1 CXG       0.037700
      6 CB          -7.4420     1.1500    -2.3240 c3         1 CXG      -0.046000
      7 CG1         -6.6150     2.3510    -2.8620 c3         1 CXG      -0.085767
      8 CAE         -7.0680    -0.1160    -3.1460 c3         1 CXG      -0.085767
      9 CG2         -8.9460     1.4670    -2.5570 c3         1 CXG      -0.085767
     10 C           -8.0020    -0.1960    -0.1360 c          1 CXG       0.586100
     11 O           -7.6220    -1.3590    -0.0700 o          1 CXG      -0.602100
     12 NBG         -9.2100     0.1970     0.4040 ns         1 CXG      -0.500900
     13 CBA         -3.2780     0.8110     1.8370 c3         1 CXG      -0.020100
     14 CBO         -4.4850     0.1250     2.4810 ca         1 CXG      -0.087300
     15 CAT         -4.5730    -1.2800     2.5140 ca         1 CXG      -0.097000
     16 CAP         -5.6980    -1.9080     3.0760 ca         1 CXG      -0.112000
     17 CAN         -6.7430    -1.1360     3.6090 ca         1 CXG      -0.102000
     18 CAQ         -6.6610     0.2660     3.5830 ca         1 CXG      -0.112000
     19 CAU         -5.5340     0.8950     3.0250 ca         1 CXG      -0.097000
     20 OAM         -3.2490    -0.3830    -0.2920 oh         1 CXG      -0.653000
     21 CBC          0.2430     2.2540    -0.7640 c3         1 CXG       0.163800
     22 NBW          1.6410     1.8790    -0.4580 n3         1 CXG      -0.460600
     23 NBH          1.9590     0.5380    -0.8540 ns         1 CXG      -0.387300
     24 CBN          2.3980    -0.4250     0.0530 c          1 CXG       0.609100
     25 OAL          2.3230    -0.2630     1.2690 o          1 CXG      -0.575100
     26 CBV          3.0560    -1.6860    -0.5870 c3         1 CXG       0.051700
     27 CBY          2.0320    -2.8130    -0.9930 c3         1 CXG      -0.049000
     28 CAF          2.7870    -4.0220    -1.6140 c3         1 CXG      -0.089100
     29 CAG          1.2270    -3.3090     0.2410 c3         1 CXG      -0.089100
     30 CAH          1.0310    -2.2840    -2.0580 c3         1 CXG      -0.089100
     31 NBF          4.0950    -2.1900     0.3430 ns         1 CXG      -0.487900
     32 CBL          5.3780    -2.5040     0.0010 c          1 CXG       0.643100
     33 OAJ          5.8410    -2.4550    -1.1280 o          1 CXG      -0.555000
     34 OBJ          6.0490    -2.8730     1.1260 os         1 CXG      -0.451100
     35 CAB          7.4400    -3.2150     0.9950 c3         1 CXG       0.169900
     36 CBB          2.6600     2.8470    -0.9400 c3         1 CXG       0.202100
     37 CBP          4.0950     2.3660    -0.7120 ca         1 CXG      -0.095300
     38 CAW          4.9190     2.0460    -1.8070 ca         1 CXG      -0.091000
     39 CAY          6.2090     1.5300    -1.6000 ca         1 CXG      -0.100000
     40 CAX          4.5850     2.1720     0.5920 ca         1 CXG      -0.091000
     41 CAZ          5.8730     1.6500     0.7990 ca         1 CXG      -0.100000
     42 CBQ          6.7130     1.3120    -0.2930 cp         1 CXG      -0.027000
     43 CBR          8.0800     0.7350    -0.0760 cp         1 CXG      -0.035000
     44 CAV          8.8620     1.0990     1.0510 ca         1 CXG      -0.099500
     45 C1          -3.3930     0.9410     0.2880 c3         1 CXG       0.111000
     46 CAR         10.1410     0.5520     1.2560 ca         1 CXG      -0.114500
     47 C9         -10.1340    -0.7050     1.0930 c3         1 CXG       0.093300
     48 CAO         10.6680    -0.3700     0.3380 ca         1 CXG      -0.108000
     49 C24         -0.8090     1.3620    -0.0660 c3         1 CXG      -0.081400
     50 CAS          9.9150    -0.7440    -0.7850 ca         1 CXG      -0.114500
     51 C53          8.6360    -0.1980    -0.9890 ca         1 CXG      -0.099500
     52 HAA1        -2.4290     1.9230    -1.3990 hc         1 CXG       0.057700
     53 HAA2        -2.3680     2.8530     0.0840 hc         1 CXG       0.057700
     54 H241        -0.6000     1.3640     1.0100 hc         1 CXG       0.064200
     55 H242        -0.6930     0.3300    -0.4120 hc         1 CXG       0.064200
     56 H           -5.4140    -0.3060    -0.5440 hn         1 CXG       0.347500
     57 HA          -7.4250     1.8660    -0.2610 h1         1 CXG       0.078700
     58 HAE1        -7.6580    -0.9850    -2.8330 hc         1 CXG       0.038144
     59 HAE2        -7.2580     0.0450    -4.2140 hc         1 CXG       0.038144
     60 HAE3        -6.0060    -0.3670    -3.0330 hc         1 CXG       0.038144
     61 HG21        -9.2640     2.3280    -1.9570 hc         1 CXG       0.038144
     62 HG22        -9.1370     1.7040    -3.6110 hc         1 CXG       0.038144
     63 HG23        -9.5820     0.6120    -2.2970 hc         1 CXG       0.038144
     64 HG11        -5.5380     2.1550    -2.8050 hc         1 CXG       0.038144
     65 HG12        -6.8550     2.5550    -3.9130 hc         1 CXG       0.038144
     66 HG13        -6.8260     3.2610    -2.2870 hc         1 CXG       0.038144
     67 HBG         -9.4570     1.1770     0.3240 hn         1 CXG       0.317500
     68 H91C       -10.4510    -1.5020     0.4080 h1         1 CXG       0.041033
     69 H92C        -9.6350    -1.1490     1.9650 h1         1 CXG       0.041033
     70 H93C       -11.0150    -0.1430     1.4270 h1         1 CXG       0.041033
     71 HBA1        -3.1500     1.8120     2.2680 hc         1 CXG       0.069200
     72 HBA2        -2.3670     0.2570     2.0920 hc         1 CXG       0.069200
     73 HAT         -3.7740    -1.8860     2.0930 ha         1 CXG       0.115500
     74 HAU         -5.4840     1.9810     3.0040 ha         1 CXG       0.115500
     75 HAP         -5.7620    -2.9940     3.0930 ha         1 CXG       0.108500
     76 HAN         -7.6160    -1.6220     4.0390 ha         1 CXG       0.108000
     77 HAQ         -7.4700     0.8660     3.9940 ha         1 CXG       0.108500
     78 HAM         -2.9630    -0.2680    -1.2240 ho         1 CXG       0.446000
     79 HBC1         0.0720     3.2920    -0.4460 h1         1 CXG       0.035200
     80 HBC2         0.0760     2.2170    -1.8490 h1         1 CXG       0.035200
     81 HBH          2.0480     0.3200    -1.8420 hn         1 CXG       0.303500
     82 HBB1         2.5160     3.0270    -2.0140 h1         1 CXG       0.045200
     83 HBB2         2.5250     3.8110    -0.4330 h1         1 CXG       0.045200
     84 HBV          3.5590    -1.3370    -1.4980 h1         1 CXG       0.084700
     85 HBF          3.8780    -2.2440     1.3300 hn         1 CXG       0.347500
     86 HAH1         1.5610    -1.8660    -2.9220 hc         1 CXG       0.039589
     87 HAH2         0.3840    -3.0920    -2.4210 hc         1 CXG       0.039589
     88 HAH3         0.3760    -1.5080    -1.6460 hc         1 CXG       0.039589
     89 HAF1         3.4450    -4.5060    -0.8820 hc         1 CXG       0.039589
     90 HAF2         2.0830    -4.7840    -1.9710 hc         1 CXG       0.039589
     91 HAF3         3.4000    -3.7050    -2.4660 hc         1 CXG       0.039589
     92 HAG1         0.6360    -2.4990     0.6860 hc         1 CXG       0.039589
     93 HAG2         0.5300    -4.1070    -0.0440 hc         1 CXG       0.039589
     94 HAG3         1.8910    -3.7100     1.0160 hc         1 CXG       0.039589
     95 HAB1         7.8530    -3.5130     1.9670 h1         1 CXG       0.047033
     96 HAB2         7.5740    -4.0520     0.2970 h1         1 CXG       0.047033
     97 HAB3         8.0190    -2.3590     0.6290 h1         1 CXG       0.047033
     98 HAW          4.5560     2.1840    -2.8240 ha         1 CXG       0.115500
     99 HAX          3.9520     2.3980     1.4480 ha         1 CXG       0.115500
    100 HAY          6.8230     1.3000    -2.4660 ha         1 CXG       0.118500
    101 HAZ          6.2110     1.4820     1.8180 ha         1 CXG       0.118500
    102 HAV          8.4810     1.8220     1.7680 ha         1 CXG       0.119000
    103 H53          8.0630    -0.5200    -1.8550 ha         1 CXG       0.119000
    104 HAR         10.7240     0.8470     2.1260 ha         1 CXG       0.111500
    105 HAO         11.6580    -0.7920     0.4970 ha         1 CXG       0.112000
    106 HAS         10.3190    -1.4620    -1.4960 ha         1 CXG       0.111500
@<TRIPOS>BOND
     1     1    45 1   
     2     1    49 1   
     3     1    52 1   
     4     1    53 1   
     5     2     3 2   
     6     2     4 1   
     7     2    45 1   
     8     4     5 1   
     9     4    56 1   
    10     5     6 1   
    11     5    10 1   
    12     5    57 1   
    13     6     7 1   
    14     6     8 1   
    15     6     9 1   
    16     7    64 1   
    17     7    65 1   
    18     7    66 1   
    19     8    58 1   
    20     8    59 1   
    21     8    60 1   
    22     9    61 1   
    23     9    62 1   
    24     9    63 1   
    25    10    11 2   
    26    10    12 1   
    27    12    47 1   
    28    12    67 1   
    29    13    14 1   
    30    13    45 1   
    31    13    71 1   
    32    13    72 1   
    33    14    15 ar  
    34    14    19 ar  
    35    15    16 ar  
    36    15    73 1   
    37    16    17 ar  
    38    16    75 1   
    39    17    18 ar  
    40    17    76 1   
    41    18    19 ar  
    42    18    77 1   
    43    19    74 1   
    44    20    45 1   
    45    20    78 1   
    46    21    22 1   
    47    21    49 1   
    48    21    79 1   
    49    21    80 1   
    50    22    23 1   
    51    22    36 1   
    52    23    24 1   
    53    23    81 1   
    54    24    25 2   
    55    24    26 1   
    56    26    27 1   
    57    26    31 1   
    58    26    84 1   
    59    27    28 1   
    60    27    29 1   
    61    27    30 1   
    62    28    89 1   
    63    28    90 1   
    64    28    91 1   
    65    29    92 1   
    66    29    93 1   
    67    29    94 1   
    68    30    86 1   
    69    30    87 1   
    70    30    88 1   
    71    31    32 1   
    72    31    85 1   
    73    32    33 2   
    74    32    34 1   
    75    34    35 1   
    76    35    95 1   
    77    35    96 1   
    78    35    97 1   
    79    36    37 1   
    80    36    82 1   
    81    36    83 1   
    82    37    38 ar  
    83    37    40 ar  
    84    38    39 ar  
    85    38    98 1   
    86    39    42 ar  
    87    39   100 1   
    88    40    41 ar  
    89    40    99 1   
    90    41    42 ar  
    91    41   101 1   
    92    42    43 1   
    93    43    44 ar  
    94    43    51 ar  
    95    44    46 ar  
    96    44   102 1   
    97    46    48 ar  
    98    46   104 1   
    99    47    68 1   
   100    47    69 1   
   101    47    70 1   
   102    48    50 ar  
   103    48   105 1   
   104    49    54 1   
   105    49    55 1   
   106    50    51 ar  
   107    50   106 1   
   108    51   103 1   
@<TRIPOS>SUBSTRUCTURE
     1 CXG         1 TEMP              0 ****  ****    0 ROOT
