@<TRIPOS>MOLECULE
CXH
   20    20     1     0     0
SMALL
bcc


@<TRIPOS>ATOM
      1 C10         -0.5460    -2.0180    -0.1790 ca         1 CXH      -0.181000
      2 C02         -1.7690     0.4480    -0.0250 ca         1 CXH       0.055400
      3 C03         -0.3850     0.3800    -0.0880 ca         1 CXH      -0.142000
      4 C04          0.2400    -0.8630    -0.1640 ca         1 CXH       0.085600
      5 C06          2.6060    -0.1080    -0.1470 c          1 CXH       0.687100
      6 C07          3.9940    -0.7060    -0.2090 c3         1 CXH      -0.089300
      7 C11         -1.9210    -1.9350    -0.1160 ca         1 CXH      -0.084000
      8 C12         -2.5480    -0.7000    -0.0360 ca         1 CXH      -0.003600
      9 N05          1.6210    -1.0380    -0.2310 ns         1 CXH      -0.472100
     10 O09          2.4210     1.0860    -0.0300 o          1 CXH      -0.540100
     11 S08          5.2020     0.6440    -0.1630 sh         1 CXH      -0.293900
     12 CL1         -2.5080     2.0010     0.0660 cl         1 CXH      -0.073400
     13 CL2         -4.2660    -0.6120     0.0440 cl         1 CXH      -0.078400
     14 H1          -0.0780    -2.9920    -0.2420 ha         1 CXH       0.135000
     15 H2           0.1870     1.2930    -0.0800 ha         1 CXH       0.186000
     16 H3           4.1370    -1.3820     0.6370 h1         1 CXH       0.077200
     17 H4           4.1040    -1.2960    -1.1210 h1         1 CXH       0.077200
     18 H5          -2.5150    -2.8390    -0.1270 ha         1 CXH       0.150000
     19 H6           1.9220    -1.9980    -0.3190 hn         1 CXH       0.318500
     20 H7           6.2790    -0.1470    -0.2280 hs         1 CXH       0.186800
@<TRIPOS>BOND
     1     1     4 ar  
     2     1     7 ar  
     3     1    14 1   
     4     2     3 ar  
     5     2     8 ar  
     6     2    12 1   
     7     3     4 ar  
     8     3    15 1   
     9     4     9 1   
    10     5     6 1   
    11     5     9 1   
    12     5    10 2   
    13     6    11 1   
    14     6    16 1   
    15     6    17 1   
    16     7     8 ar  
    17     7    18 1   
    18     8    13 1   
    19     9    19 1   
    20    11    20 1   
@<TRIPOS>SUBSTRUCTURE
     1 CXH         1 TEMP              0 ****  ****    0 ROOT
