@<TRIPOS>MOLECULE
CXH
   20    20     1     0     0
SMALL
No Charge or Current Charge


@<TRIPOS>ATOM
      1 C10         -0.5540    -2.0200    -0.1720 ca         1 CXH      -0.163000
      2 C02         -1.8650     0.4560    -0.0170 ca         1 CXH       0.147000
      3 C03         -0.4600     0.4050    -0.0550 ca         1 CXH      -0.124000
      4 C04          0.2100    -0.8380    -0.1330 ca         1 CXH      -0.007000
      5 C06          2.6560    -0.0390    -0.1540 c          1 CXH       0.620100
      6 C07          4.0590    -0.6800    -0.2210 c3         1 CXH      -0.041400
      7 C11         -1.9590    -1.9710    -0.1350 ca         1 CXH      -0.066000
      8 C12         -2.6180    -0.7340    -0.0570 ca         1 CXH       0.088000
      9 N05          1.6260    -0.9710    -0.1750 ns         1 CXH      -0.146000
     10 O09          2.4830     1.1730    -0.0880 o          1 CXH      -0.540100
     11 S08          5.4610     0.5560    -0.1950 sh         1 CXH      -0.341800
     12 Cl1         -2.6590     2.0290     0.0810 cl         1 CXH      -0.165000
     13 Cl2         -4.3820    -0.7030    -0.0110 cl         1 CXH      -0.170000
     14 H1          -0.0580    -2.9870    -0.2330 ha         1 CXH       0.117000
     15 H2           0.0820     1.3430    -0.0220 ha         1 CXH       0.168000
     16 H3           4.1640    -1.3600     0.6330 h1         1 CXH       0.077200
     17 H4           4.1190    -1.2710    -1.1430 h1         1 CXH       0.077200
     18 H5          -2.5360    -2.8920    -0.1660 ha         1 CXH       0.132000
     19 H6           1.9410    -1.9310    -0.2310 hn         1 CXH       0.152000
     20 H7           6.4680    -0.3480    -0.2660 hs         1 CXH       0.186800
@<TRIPOS>BOND
     1     1     4 ar  
     2     1     7 ar  
     3     1    14 1   
     4     2     3 ar  
     5     2     8 ar  
     6     2    12 1   
     7     3     4 ar  
     8     3    15 1   
     9     4     9 1   
    10     5     6 1   
    11     5     9 1   
    12     5    10 2   
    13     6    11 1   
    14     6    16 1   
    15     6    17 1   
    16     7     8 ar  
    17     7    18 1   
    18     8    13 1   
    19     9    19 1   
    20    11    20 1   
@<TRIPOS>SUBSTRUCTURE
     1 CXH         1 TEMP              0 ****  ****    0 ROOT
