@<TRIPOS>MOLECULE
CXI
   28    29     1     0     0
SMALL
bcc


@<TRIPOS>ATOM
      1 C1           0.1690    19.2220   -15.1680 c3         1 CXI      -0.056400
      2 C2           1.2050    18.8100   -16.2280 cy         1 CXI      -0.065700
      3 C3           0.6140    18.2400   -17.5300 cy         1 CXI       0.120900
      4 C4           1.7640    17.3840   -16.0700 cy         1 CXI       0.120900
      5 C5           2.2180    19.9120   -16.3580 ca         1 CXI      -0.069300
      6 C6           2.0270    20.9570   -17.2590 ca         1 CXI      -0.122500
      7 C7           2.9400    22.0000   -17.3450 ca         1 CXI      -0.126000
      8 C8           4.0600    22.0150   -16.5240 ca         1 CXI      -0.127000
      9 C10          3.3420    19.9410   -15.5360 ca         1 CXI      -0.122500
     10 N           -0.8770    17.0500   -14.4610 n8         1 CXI      -0.892800
     11 C           -1.0980    18.3870   -14.9950 c3         1 CXI       0.156800
     12 O            0.9210    16.9010   -17.1240 oq         1 CXI      -0.411600
     13 C9           4.2570    20.9820   -15.6170 ca         1 CXI      -0.126000
     14 H1           0.6840    19.2840   -14.2040 hc         1 CXI       0.051700
     15 H2          -0.1580    20.2390   -15.4050 hc         1 CXI       0.051700
     16 H3           1.1680    18.5320   -18.4290 h1         1 CXI       0.057200
     17 H4          -0.4530    18.3930   -17.7140 h1         1 CXI       0.057200
     18 H5           1.5860    16.8830   -15.1170 h1         1 CXI       0.057200
     19 H6           2.8260    17.2970   -16.3260 h1         1 CXI       0.057200
     20 H7           1.1550    20.9600   -17.9020 ha         1 CXI       0.130000
     21 H8           2.7760    22.7990   -18.0560 ha         1 CXI       0.131500
     22 H9           4.7740    22.8260   -16.5910 ha         1 CXI       0.131000
     23 H10          3.5100    19.1420   -14.8210 ha         1 CXI       0.130000
     24 H11         -1.7560    16.6870   -14.1140 hn         1 CXI       0.343800
     25 H12         -0.6070    16.4240   -15.2080 hn         1 CXI       0.343800
     26 H14         -1.6720    18.3920   -15.9320 h1         1 CXI       0.024700
     27 H15         -1.7170    18.9280   -14.2760 h1         1 CXI       0.024700
     28 H16          5.1270    20.9850   -14.9720 ha         1 CXI       0.131500
@<TRIPOS>BOND
     1     1     2 1   
     2     1    11 1   
     3     1    14 1   
     4     1    15 1   
     5     2     3 1   
     6     2     4 1   
     7     2     5 1   
     8     3    12 1   
     9     3    16 1   
    10     3    17 1   
    11     4    12 1   
    12     4    18 1   
    13     4    19 1   
    14     5     6 ar  
    15     5     9 ar  
    16     6     7 ar  
    17     6    20 1   
    18     7     8 ar  
    19     7    21 1   
    20     8    13 ar  
    21     8    22 1   
    22     9    13 ar  
    23     9    23 1   
    24    10    11 1   
    25    10    24 1   
    26    10    25 1   
    27    11    26 1   
    28    11    27 1   
    29    13    28 1   
@<TRIPOS>SUBSTRUCTURE
     1 CXI         1 TEMP              0 ****  ****    0 ROOT
