@<TRIPOS>MOLECULE
CXI
   28    29     1     0     0
SMALL
No Charge or Current Charge


@<TRIPOS>ATOM
      1 C1           0.1320    19.2500   -15.1010 c3         1 CXI      -0.056400
      2 C2           1.1650    18.8060   -16.1850 cy         1 CXI      -0.065700
      3 C3           0.6100    18.2390   -17.5420 cy         1 CXI       0.144100
      4 C4           1.7830    17.3650   -16.0890 cy         1 CXI       0.144100
      5 C5           2.1980    19.9300   -16.3220 ca         1 CXI      -0.069300
      6 C6           2.0110    20.9640   -17.2620 ca         1 CXI      -0.104500
      7 C7           2.9560    21.9980   -17.3790 ca         1 CXI      -0.108000
      8 C8           4.0920    22.0110   -16.5540 ca         1 CXI      -0.109000
      9 C10          3.3360    19.9560   -15.4890 ca         1 CXI      -0.104500
     10 N           -0.9100    17.0440   -14.4450 n8         1 CXI      -1.003200
     11 C           -1.1620    18.4090   -14.9340 c3         1 CXI       0.156800
     12 O            0.6930    16.8910   -16.9550 oq         1 CXI      -0.458000
     13 C9           4.2800    20.9900   -15.6070 ca         1 CXI      -0.108000
     14 H1           0.6340    19.3110   -14.1270 hc         1 CXI       0.051700
     15 H2          -0.1900    20.2730   -15.3280 hc         1 CXI       0.051700
     16 H3           1.2890    18.3460   -18.3980 h1         1 CXI       0.057200
     17 H4          -0.4140    18.5280   -17.8060 h1         1 CXI       0.057200
     18 H5           1.7780    16.9020   -15.0960 h1         1 CXI       0.057200
     19 H6           2.7600    17.2520   -16.5760 h1         1 CXI       0.057200
     20 H7           1.1310    20.9730   -17.9020 ha         1 CXI       0.112000
     21 H8           2.8050    22.7920   -18.1090 ha         1 CXI       0.113500
     22 H9           4.8220    22.8120   -16.6440 ha         1 CXI       0.113000
     23 H10          3.4900    19.1760   -14.7460 ha         1 CXI       0.112000
     24 H11         -1.7940    16.5220   -14.4470 hn         1 CXI       0.399000
     25 H12         -0.3500    16.5720   -15.1690 hn         1 CXI       0.399000
     26 H14         -1.6940    18.3480   -15.8930 h1         1 CXI       0.024700
     27 H15         -1.8230    18.9110   -14.2140 h1         1 CXI       0.024700
     28 H16          5.1570    21.0020   -14.9630 ha         1 CXI       0.113500
@<TRIPOS>BOND
     1     1     2 1   
     2     1    11 1   
     3     1    14 1   
     4     1    15 1   
     5     2     3 1   
     6     2     4 1   
     7     2     5 1   
     8     3    12 1   
     9     3    16 1   
    10     3    17 1   
    11     4    12 1   
    12     4    18 1   
    13     4    19 1   
    14     5     6 ar  
    15     5     9 ar  
    16     6     7 ar  
    17     6    20 1   
    18     7     8 ar  
    19     7    21 1   
    20     8    13 ar  
    21     8    22 1   
    22     9    13 ar  
    23     9    23 1   
    24    10    11 1   
    25    10    24 1   
    26    10    25 1   
    27    11    26 1   
    28    11    27 1   
    29    13    28 1   
@<TRIPOS>SUBSTRUCTURE
     1 CXI         1 TEMP              0 ****  ****    0 ROOT
