@<TRIPOS>MOLECULE
CXJ
   18    18     1     0     0
SMALL
No Charge or Current Charge


@<TRIPOS>ATOM
      1 C7          -0.7450     1.2250    -0.5920 ca         1 CXJ      -0.154000
      2 C4          -1.6420    -1.2360     0.4020 ca         1 CXJ       0.175500
      3 C5          -2.5500    -0.1810     0.2420 ca         1 CXJ      -0.234000
      4 C6          -2.0960     1.0470    -0.2560 ca         1 CXJ       0.175500
      5 C3          -0.2900    -1.0680     0.0690 ca         1 CXJ      -0.154000
      6 C2           0.1730     0.1670    -0.4310 ca         1 CXJ       0.018700
      7 C1           2.5630     0.1720     0.4630 c          1 CXJ       0.700000
      8 F1          -2.9670     2.0680    -0.4130 f          1 CXJ      -0.199000
      9 F           -2.0740    -2.4230     0.8790 f          1 CXJ      -0.199000
     10 C            1.6450     0.3610    -0.7970 c3         1 CXJ       0.037600
     11 O            2.0140    -0.5290    -1.8860 oh         1 CXJ      -0.699000
     12 H5          -0.4140     2.1860    -0.9770 ha         1 CXJ       0.142000
     13 H4          -3.5970    -0.3150     0.5000 ha         1 CXJ       0.125000
     14 H3           0.3980    -1.9000     0.1980 ha         1 CXJ       0.142000
     15 H1           1.7860     1.4010    -1.1210 h1         1 CXJ       0.046700
     16 H            2.6300    -1.1870    -1.4780 ho         1 CXJ       0.478000
     17 O1           2.5900     1.0550     1.3100 o          1 CXJ      -0.702000
     18 O2           3.2320    -0.8530     0.5280 o          1 CXJ      -0.702000
@<TRIPOS>BOND
     1     1     4 ar  
     2     1     6 ar  
     3     1    12 1   
     4     2     3 ar  
     5     2     5 ar  
     6     2     9 1   
     7     3     4 ar  
     8     3    13 1   
     9     4     8 1   
    10     5     6 ar  
    11     5    14 1   
    12     6    10 1   
    13     7    10 1   
    14     7    17 1   
    15     7    18 1   
    16    10    11 1   
    17    10    15 1   
    18    11    16 1   
@<TRIPOS>SUBSTRUCTURE
     1 CXJ         1 TEMP              0 ****  ****    0 ROOT
