@<TRIPOS>MOLECULE
CXJ
   18    18     1     0     0
SMALL
abcg2


@<TRIPOS>ATOM
      1 C7          -0.6160     1.2040    -0.3730 ca         1 CXJ      -0.154000
      2 C4          -1.7190    -1.2580     0.1450 ca         1 CXJ       0.175500
      3 C5          -2.5200    -0.1440     0.2960 ca         1 CXJ      -0.234000
      4 C6          -1.9300     1.0760     0.0230 ca         1 CXJ       0.175500
      5 C3          -0.3990    -1.1920    -0.2540 ca         1 CXJ      -0.154000
      6 C2           0.1610     0.0560    -0.5120 ca         1 CXJ       0.018700
      7 C1           2.4540     0.5130     0.3660 c          1 CXJ       0.700000
      8 F1          -2.6780     2.1830     0.1510 f          1 CXJ      -0.199000
      9 F           -2.2560    -2.4620     0.3970 f          1 CXJ      -0.199000
     10 C            1.6120     0.1760    -0.9040 c3         1 CXJ       0.037600
     11 O            2.1000    -0.9940    -1.4890 oh         1 CXJ      -0.699000
     12 H5          -0.2040     2.1830    -0.5810 ha         1 CXJ       0.142000
     13 H4          -3.5550    -0.2220     0.6020 ha         1 CXJ       0.125000
     14 H3           0.1790    -2.0980    -0.3700 ha         1 CXJ       0.142000
     15 H1           1.7120     1.0210    -1.5980 h1         1 CXJ       0.046700
     16 H            2.7970    -1.2680    -0.8620 ho         1 CXJ       0.478000
     17 O1           2.1960     1.5620     0.9640 o          1 CXJ      -0.702000
     18 O2           3.3230    -0.3440     0.6390 o          1 CXJ      -0.702000
@<TRIPOS>BOND
     1     1     4 ar  
     2     1     6 ar  
     3     1    12 1   
     4     2     3 ar  
     5     2     5 ar  
     6     2     9 1   
     7     3     4 ar  
     8     3    13 1   
     9     4     8 1   
    10     5     6 ar  
    11     5    14 1   
    12     6    10 1   
    13     7    10 1   
    14     7    17 1   
    15     7    18 1   
    16    10    11 1   
    17    10    15 1   
    18    11    16 1   
@<TRIPOS>SUBSTRUCTURE
     1 CXJ         1 TEMP              0 ****  ****    0 ROOT
