@<TRIPOS>MOLECULE
CXL
   19    19     1     0     0
SMALL
No Charge or Current Charge


@<TRIPOS>ATOM
      1 C1          -0.0330    -0.3240     1.0350 c6         1 CXL       0.171300
      2 C2          -1.2890     0.2000     0.2920 c6         1 CXL      -0.092400
      3 C3          -1.2710    -0.2090    -1.2030 c6         1 CXL      -0.072400
      4 C4           0.0250     0.2720    -1.9000 c6         1 CXL      -0.076400
      5 C5           1.2840    -0.2440    -1.1590 c6         1 CXL      -0.072400
      6 C6           1.2620     0.1650     0.3360 c6         1 CXL      -0.092400
      7 O           -0.0530     0.1190     2.3940 oh         1 CXL      -0.661000
      8 H1          -0.0490    -1.4240     1.0050 h1         1 CXL       0.025700
      9 H21         -2.1960    -0.1920     0.7710 hc         1 CXL       0.047700
     10 H22         -1.3410     1.2950     0.3730 hc         1 CXL       0.047700
     11 H31         -1.3540    -1.3010    -1.2880 hc         1 CXL       0.039450
     12 H32         -2.1480     0.2110    -1.7150 hc         1 CXL       0.039450
     13 H41          0.0380    -0.0730    -2.9430 hc         1 CXL       0.040200
     14 H42          0.0410     1.3700    -1.9350 hc         1 CXL       0.040200
     15 H51          1.3390    -1.3380    -1.2420 hc         1 CXL       0.039450
     16 H52          2.1880     0.1520    -1.6410 hc         1 CXL       0.039450
     17 H61          1.3420     1.2590     0.4180 hc         1 CXL       0.047700
     18 H62          2.1440    -0.2510     0.8430 hc         1 CXL       0.047700
     19 HO           0.7270    -0.2870     2.8330 ho         1 CXL       0.440000
@<TRIPOS>BOND
     1     1     2 1   
     2     1     6 1   
     3     1     7 1   
     4     1     8 1   
     5     2     3 1   
     6     2     9 1   
     7     2    10 1   
     8     3     4 1   
     9     3    11 1   
    10     3    12 1   
    11     4     5 1   
    12     4    13 1   
    13     4    14 1   
    14     5     6 1   
    15     5    15 1   
    16     5    16 1   
    17     6    17 1   
    18     6    18 1   
    19     7    19 1   
@<TRIPOS>SUBSTRUCTURE
     1 CXL         1 TEMP              0 ****  ****    0 ROOT
