@<TRIPOS>MOLECULE
CXL
   19    19     1     0     0
SMALL
bcc


@<TRIPOS>ATOM
      1 C1          -0.0240    -0.3250     1.0070 c6         1 CXL       0.148100
      2 C2          -1.2590     0.1960     0.2900 c6         1 CXL      -0.092400
      3 C3          -1.2480    -0.2050    -1.1830 c6         1 CXL      -0.072400
      4 C4           0.0250     0.2650    -1.8780 c6         1 CXL      -0.076400
      5 C5           1.2670    -0.2430    -1.1540 c6         1 CXL      -0.072400
      6 C6           1.2480     0.1590     0.3190 c6         1 CXL      -0.092400
      7 O           -0.0920     0.0950     2.3570 oh         1 CXL      -0.598800
      8 H1          -0.0390    -1.4250     0.9490 h1         1 CXL       0.025700
      9 H21         -2.1610    -0.1850     0.7780 hc         1 CXL       0.047700
     10 H22         -1.2890     1.2890     0.3730 hc         1 CXL       0.047700
     11 H31         -1.3270    -1.2940    -1.2660 hc         1 CXL       0.039450
     12 H32         -2.1280     0.2040    -1.6840 hc         1 CXL       0.039450
     13 H41          0.0320    -0.0640    -2.9200 hc         1 CXL       0.040200
     14 H42          0.0420     1.3600    -1.8960 hc         1 CXL       0.040200
     15 H51          1.3170    -1.3340    -1.2350 hc         1 CXL       0.039450
     16 H52          2.1720     0.1410    -1.6310 hc         1 CXL       0.039450
     17 H61          1.3060     1.2510     0.4050 hc         1 CXL       0.047700
     18 H62          2.1260    -0.2470     0.8310 hc         1 CXL       0.047700
     19 HO           0.6890    -0.2370     2.8120 ho         1 CXL       0.401000
@<TRIPOS>BOND
     1     1     2 1   
     2     1     6 1   
     3     1     7 1   
     4     1     8 1   
     5     2     3 1   
     6     2     9 1   
     7     2    10 1   
     8     3     4 1   
     9     3    11 1   
    10     3    12 1   
    11     4     5 1   
    12     4    13 1   
    13     4    14 1   
    14     5     6 1   
    15     5    15 1   
    16     5    16 1   
    17     6    17 1   
    18     6    18 1   
    19     7    19 1   
@<TRIPOS>SUBSTRUCTURE
     1 CXL         1 TEMP              0 ****  ****    0 ROOT
