@<TRIPOS>MOLECULE
CXM
   21    20     1     0     0
SMALL
No Charge or Current Charge


@<TRIPOS>ATOM
      1 N           39.2860    48.3100    36.5970 ns         1 CXM      -0.545900
      2 CA          37.9020    47.9340    37.0010 c3         1 CXM      -0.022300
      3 CB          37.1420    47.1820    35.8770 c3         1 CXM      -0.056400
      4 CG          36.9230    48.0160    34.5960 c3         1 CXM       0.120600
      5 SD          35.8750    47.1000    33.3620 ss         1 CXM      -0.582000
      6 CE          37.1020    45.8590    32.7360 c3         1 CXM       0.068900
      7 C           37.9180    47.0980    38.3260 c          1 CXM       0.704000
      8 O           38.6040    46.0850    38.3780 o          1 CXM      -0.758500
      9 CN          39.6810    49.4920    36.0400 c          1 CXM       0.727000
     10 ON1         40.8630    49.5970    35.7850 o          1 CXM      -0.784000
     11 ON2         38.8610    50.3670    35.8370 o          1 CXM      -0.784000
     12 OXT         37.2950    47.5270    39.2880 o          1 CXM      -0.758500
     13 H           40.0240    47.6390    36.7590 hn         1 CXM       0.278500
     14 HA          37.3470    48.8540    37.2240 h1         1 CXM       0.048700
     15 HB2         37.6850    46.2620    35.6270 hc         1 CXM       0.025700
     16 HB3         36.1630    46.8770    36.2650 hc         1 CXM       0.025700
     17 HG2         36.4190    48.9550    34.8610 h1         1 CXM       0.082200
     18 HG3         37.8900    48.2690    34.1400 h1         1 CXM       0.082200
     19 HE1         36.6490    45.2630    31.9330 h1         1 CXM       0.042700
     20 HE2         37.9880    46.3740    32.3430 h1         1 CXM       0.042700
     21 HE3         37.4070    45.1860    33.5480 h1         1 CXM       0.042700
@<TRIPOS>BOND
     1     1     2 1   
     2     1     9 1   
     3     1    13 1   
     4     2     3 1   
     5     2     7 1   
     6     2    14 1   
     7     3     4 1   
     8     3    15 1   
     9     3    16 1   
    10     4     5 1   
    11     4    17 1   
    12     4    18 1   
    13     5     6 1   
    14     6    19 1   
    15     6    20 1   
    16     6    21 1   
    17     7     8 1   
    18     7    12 1   
    19     9    10 1   
    20     9    11 1   
@<TRIPOS>SUBSTRUCTURE
     1 CXM         1 TEMP              0 ****  ****    0 ROOT
