@<TRIPOS>MOLECULE
CXM
   21    20     1     0     0
SMALL
abcg2


@<TRIPOS>ATOM
      1 N           39.2880    48.2220    36.4020 ns         1 CXM      -0.545900
      2 CA          37.9710    47.9370    36.9090 c3         1 CXM      -0.022300
      3 CB          37.1000    47.2080    35.8720 c3         1 CXM      -0.056400
      4 CG          36.9330    48.0000    34.5870 c3         1 CXM       0.120600
      5 SD          35.9030    47.1750    33.3370 ss         1 CXM      -0.582000
      6 CE          37.0050    45.8370    32.8230 c3         1 CXM       0.068900
      7 C           38.0220    47.0960    38.2140 c          1 CXM       0.704000
      8 O           39.1360    46.6760    38.5880 o          1 CXM      -0.758500
      9 CN          39.7380    49.5220    36.1120 c          1 CXM       0.727000
     10 ON1         40.9800    49.6520    36.0120 o          1 CXM      -0.784000
     11 ON2         38.8780    50.4170    35.9560 o          1 CXM      -0.784000
     12 OXT         36.9270    46.9000    38.7770 o          1 CXM      -0.758500
     13 H           39.9870    47.6280    36.8190 hn         1 CXM       0.278500
     14 HA          37.4730    48.8820    37.1480 h1         1 CXM       0.048700
     15 HB2         37.5560    46.2370    35.6480 hc         1 CXM       0.025700
     16 HB3         36.1170    47.0050    36.2980 hc         1 CXM       0.025700
     17 HG2         36.4410    48.9530    34.7860 h1         1 CXM       0.082200
     18 HG3         37.9010    48.2270    34.1370 h1         1 CXM       0.082200
     19 HE1         36.5340    45.3260    31.9850 h1         1 CXM       0.042700
     20 HE2         37.9660    46.2320    32.4940 h1         1 CXM       0.042700
     21 HE3         37.1680    45.1140    33.6200 h1         1 CXM       0.042700
@<TRIPOS>BOND
     1     1     2 1   
     2     1     9 1   
     3     1    13 1   
     4     2     3 1   
     5     2     7 1   
     6     2    14 1   
     7     3     4 1   
     8     3    15 1   
     9     3    16 1   
    10     4     5 1   
    11     4    17 1   
    12     4    18 1   
    13     5     6 1   
    14     6    19 1   
    15     6    20 1   
    16     6    21 1   
    17     7     8 1   
    18     7    12 1   
    19     9    10 1   
    20     9    11 1   
@<TRIPOS>SUBSTRUCTURE
     1 CXM         1 TEMP              0 ****  ****    0 ROOT
