@<TRIPOS>MOLECULE
CXN
   46    49     1     0     0
SMALL
No Charge or Current Charge


@<TRIPOS>ATOM
      1 C1           0.1440     1.6390    -2.0200 c          1 CXN       0.531000
      2 O1          -0.5690     2.6180    -1.8460 o          1 CXN      -0.505000
      3 C2           1.3350     0.9670    -1.2660 cy         1 CXN       0.000700
      4 C3           1.0090    -0.2660    -2.1850 cy         1 CXN       0.198700
      5 N7           0.1700     0.6330    -2.9890 nj         1 CXN      -0.304800
      6 C6          -0.9390     0.0770    -3.7820 c5         1 CXN      -0.046300
      7 C8          -0.8100     0.2890    -5.3230 c          1 CXN       0.735000
      8 O81         -1.8350     0.3410    -5.9880 o          1 CXN      -0.704000
      9 O82          0.2890     0.4990    -5.8190 o          1 CXN      -0.704000
     10 C5          -1.0230    -1.4500    -3.4230 c5         1 CXN       0.157000
     11 C51         -0.1990    -2.3980    -4.3370 c3         1 CXN      -0.075600
     12 C52         -2.4780    -1.9690    -3.3360 c3         1 CXN      -0.075600
     13 S4          -0.2760    -1.5100    -1.7220 ss         1 CXN      -0.579000
     14 N2           1.2870     0.8550     0.1870 ns         1 CXN      -0.465900
     15 C21          2.3970     0.8430     1.0030 c          1 CXN       0.659700
     16 O21          3.5260     0.8650     0.5360 o          1 CXN      -0.622100
     17 C22          2.1160     0.8980     2.4490 cc         1 CXN      -0.278600
     18 N25          1.0010     1.0390     4.4340 nd         1 CXN      -0.357300
     19 O24          2.3930     1.3310     4.6170 os         1 CXN      -0.078700
     20 C23          3.0220     1.2170     3.4090 cd         1 CXN       0.251300
     21 C26          0.8870     0.7730     3.1420 cc         1 CXN       0.360500
     22 C27          4.4910     1.5320     3.3360 c3         1 CXN      -0.137400
     23 C28         -0.3770     0.2310     2.6290 ca         1 CXN      -0.161500
     24 C29         -0.4430    -0.9940     1.9170 ca         1 CXN       0.149000
     25 Cl           0.9820    -2.0130     1.6910 cl         1 CXN      -0.184000
     26 C30         -1.6810    -1.4910     1.4750 ca         1 CXN      -0.091000
     27 C31         -2.8680    -0.7970     1.7560 ca         1 CXN      -0.083000
     28 C32         -2.8200     0.3810     2.5170 ca         1 CXN      -0.107000
     29 C33         -1.5860     0.8790     2.9680 ca         1 CXN      -0.072000
     30 H2           2.2720     1.4550    -1.5530 h1         1 CXN       0.111700
     31 H3           1.8460    -0.7360    -2.7150 h2         1 CXN       0.106700
     32 H6          -1.8510     0.5940    -3.4590 h1         1 CXN       0.057700
     33 H511        -0.1770    -3.4160    -3.9300 hc         1 CXN       0.043867
     34 H512        -0.6290    -2.4610    -5.3440 hc         1 CXN       0.043867
     35 H513         0.8390    -2.0630    -4.4390 hc         1 CXN       0.043867
     36 H521        -2.5110    -3.0080    -2.9860 hc         1 CXN       0.043867
     37 H522        -3.0710    -1.3670    -2.6370 hc         1 CXN       0.043867
     38 H523        -2.9720    -1.9290    -4.3130 hc         1 CXN       0.043867
     39 HN2          0.3900     0.8410     0.6550 hn         1 CXN       0.337500
     40 H271         4.8980     1.7630     4.3280 hc         1 CXN       0.070367
     41 H272         5.0530     0.6810     2.9350 hc         1 CXN       0.070367
     42 H273         4.6740     2.3970     2.6890 hc         1 CXN       0.070367
     43 H30         -1.7200    -2.4300     0.9290 ha         1 CXN       0.136000
     44 H31         -3.8230    -1.1870     1.4110 ha         1 CXN       0.121000
     45 H32         -3.7410     0.9070     2.7610 ha         1 CXN       0.122000
     46 H33         -1.5690     1.7930     3.5600 ha         1 CXN       0.125000
@<TRIPOS>BOND
     1     1     2 2   
     2     1     3 1   
     3     1     5 1   
     4     3     4 1   
     5     3    14 1   
     6     3    30 1   
     7     4     5 1   
     8     4    13 1   
     9     4    31 1   
    10     5     6 1   
    11     6     7 1   
    12     6    10 1   
    13     6    32 1   
    14     7     8 1   
    15     7     9 1   
    16    10    11 1   
    17    10    12 1   
    18    10    13 1   
    19    11    33 1   
    20    11    34 1   
    21    11    35 1   
    22    12    36 1   
    23    12    37 1   
    24    12    38 1   
    25    14    15 1   
    26    14    39 1   
    27    15    16 2   
    28    15    17 1   
    29    17    20 2   
    30    17    21 1   
    31    18    19 1   
    32    18    21 2   
    33    19    20 1   
    34    20    22 1   
    35    21    23 1   
    36    22    40 1   
    37    22    41 1   
    38    22    42 1   
    39    23    24 ar  
    40    23    29 ar  
    41    24    25 1   
    42    24    26 ar  
    43    26    27 ar  
    44    26    43 1   
    45    27    28 ar  
    46    27    44 1   
    47    28    29 ar  
    48    28    45 1   
    49    29    46 1   
@<TRIPOS>SUBSTRUCTURE
     1 CXN         1 TEMP              0 ****  ****    0 ROOT
