@<TRIPOS>MOLECULE
CXN
   46    49     1     0     0
SMALL
bcc


@<TRIPOS>ATOM
      1 C1           0.3240     1.6770    -2.0540 c          1 CXN       0.673500
      2 O1          -0.3700     2.6340    -1.8310 o          1 CXN      -0.580500
      3 C2           1.5350     1.0250    -1.3690 cy         1 CXN       0.000700
      4 C3           1.2220    -0.1600    -2.3190 cy         1 CXN       0.150800
      5 N7           0.2410     0.6860    -2.9880 nj         1 CXN      -0.371800
      6 C6          -0.9870     0.0740    -3.4600 c5         1 CXN      -0.046300
      7 C8          -1.2900     0.3080    -4.9580 c          1 CXN       0.945600
      8 O81         -2.4610     0.0440    -5.2950 o          1 CXN      -0.809300
      9 O82         -0.3630     0.7150    -5.6720 o          1 CXN      -0.809300
     10 C5          -0.8760    -1.4420    -3.1140 c5         1 CXN       0.109100
     11 C51         -0.2290    -2.2560    -4.2320 c3         1 CXN      -0.075600
     12 C52         -2.2270    -2.0250    -2.7280 c3         1 CXN      -0.075600
     13 S4           0.2320    -1.5040    -1.6280 ss         1 CXN      -0.483200
     14 N2           1.4030     0.8330     0.0330 ns         1 CXN      -0.532900
     15 C21          2.4000     1.0650     0.9180 c          1 CXN       0.726700
     16 O21          3.5090     1.4500     0.5840 o          1 CXN      -0.622100
     17 C22          2.0720     0.8410     2.3350 cc         1 CXN      -0.409200
     18 N25          1.0260     0.3850     4.2710 nd         1 CXN      -0.357300
     19 O24          2.3100     0.7730     4.5100 os         1 CXN      -0.123100
     20 C23          2.9380     1.0440     3.3740 cd         1 CXN       0.361000
     21 C26          0.8750     0.4180     2.9830 cc         1 CXN       0.425800
     22 C27          4.3460     1.4870     3.4650 c3         1 CXN      -0.137400
     23 C28         -0.4290     0.0560     2.3970 ca         1 CXN      -0.161500
     24 C29         -0.6670    -1.2260     1.9080 ca         1 CXN       0.057400
     25 CL           0.5940    -2.4060     1.9700 cl         1 CXN      -0.092400
     26 C30         -1.8880    -1.5650     1.3480 ca         1 CXN      -0.109000
     27 C31         -2.8890    -0.6100     1.2760 ca         1 CXN      -0.101000
     28 C32         -2.6720     0.6740     1.7560 ca         1 CXN      -0.125000
     29 C33         -1.4470     1.0030     2.3160 ca         1 CXN      -0.090000
     30 H2           2.4850     1.5070    -1.5960 h1         1 CXN       0.111700
     31 H3           2.0420    -0.5170    -2.9410 h2         1 CXN       0.106700
     32 H6          -1.8110     0.4940    -2.8730 h1         1 CXN       0.057700
     33 H511        -0.0560    -3.2780    -3.8990 hc         1 CXN       0.043867
     34 H512        -0.8820    -2.2950    -5.1040 hc         1 CXN       0.043867
     35 H513         0.7270    -1.8360    -4.5460 hc         1 CXN       0.043867
     36 H521        -2.1420    -3.0790    -2.4620 hc         1 CXN       0.043867
     37 H522        -2.6590    -1.4910    -1.8810 hc         1 CXN       0.043867
     38 H523        -2.9100    -1.9400    -3.5710 hc         1 CXN       0.043867
     39 HN2          0.5140     0.4890     0.3630 hn         1 CXN       0.337500
     40 H271         4.6970     1.4450     4.4940 hc         1 CXN       0.070367
     41 H272         4.9850     0.8600     2.8470 hc         1 CXN       0.070367
     42 H273         4.4490     2.5100     3.1050 hc         1 CXN       0.070367
     43 H30         -2.0530    -2.5640     0.9690 ha         1 CXN       0.154000
     44 H31         -3.8420    -0.8740     0.8370 ha         1 CXN       0.139000
     45 H32         -3.4530     1.4190     1.6960 ha         1 CXN       0.140000
     46 H33         -1.2680     2.0030     2.6870 ha         1 CXN       0.143000
@<TRIPOS>BOND
     1     1     2 2   
     2     1     3 1   
     3     1     5 1   
     4     3     4 1   
     5     3    14 1   
     6     3    30 1   
     7     4     5 1   
     8     4    13 1   
     9     4    31 1   
    10     5     6 1   
    11     6     7 1   
    12     6    10 1   
    13     6    32 1   
    14     7     8 1   
    15     7     9 1   
    16    10    11 1   
    17    10    12 1   
    18    10    13 1   
    19    11    33 1   
    20    11    34 1   
    21    11    35 1   
    22    12    36 1   
    23    12    37 1   
    24    12    38 1   
    25    14    15 1   
    26    14    39 1   
    27    15    16 2   
    28    15    17 1   
    29    17    20 2   
    30    17    21 1   
    31    18    19 1   
    32    18    21 2   
    33    19    20 1   
    34    20    22 1   
    35    21    23 1   
    36    22    40 1   
    37    22    41 1   
    38    22    42 1   
    39    23    24 ar  
    40    23    29 ar  
    41    24    25 1   
    42    24    26 ar  
    43    26    27 ar  
    44    26    43 1   
    45    27    28 ar  
    46    27    44 1   
    47    28    29 ar  
    48    28    45 1   
    49    29    46 1   
@<TRIPOS>SUBSTRUCTURE
     1 CXN         1 TEMP              0 ****  ****    0 ROOT
