@<TRIPOS>MOLECULE
CXO
   16    16     1     0     0
SMALL
abcg2


@<TRIPOS>ATOM
      1 O2          -1.7050     1.3510     0.2290 o          1 CXO      -0.470100
      2 C2          -0.6890     0.7680    -0.0550 c          1 CXO       0.471100
      3 C3           0.5950     1.4270    -0.4580 c6         1 CXO      -0.179400
      4 C4           1.8200     0.7310     0.1370 c6         1 CXO      -0.070900
      5 C5           1.8170    -0.7560    -0.1880 c6         1 CXO      -0.070900
      6 C6           0.5750    -1.4440     0.3790 c6         1 CXO      -0.179400
      7 C1          -0.6950    -0.7740    -0.0480 c          1 CXO       0.471100
      8 O1          -1.7100    -1.3490    -0.3510 o          1 CXO      -0.470100
      9 H31          0.6460     1.3480    -1.5510 hc         1 CXO       0.073200
     10 H32          0.5590     2.4890    -0.2130 hc         1 CXO       0.073200
     11 H41          2.7200     1.2030    -0.2580 hc         1 CXO       0.051200
     12 H42          1.8400     0.8740     1.2210 hc         1 CXO       0.051200
     13 H51          1.8570    -0.8970    -1.2720 hc         1 CXO       0.051200
     14 H52          2.7060    -1.2360     0.2230 hc         1 CXO       0.051200
     15 H61          0.5370    -2.5050     0.1310 hc         1 CXO       0.073200
     16 H62          0.6030    -1.3730     1.4740 hc         1 CXO       0.073200
@<TRIPOS>BOND
     1     1     2 2   
     2     2     3 1   
     3     2     7 1   
     4     3     4 1   
     5     3     9 1   
     6     3    10 1   
     7     4     5 1   
     8     4    11 1   
     9     4    12 1   
    10     5     6 1   
    11     5    13 1   
    12     5    14 1   
    13     6     7 1   
    14     6    15 1   
    15     6    16 1   
    16     7     8 2   
@<TRIPOS>SUBSTRUCTURE
     1 CXO         1 TEMP              0 ****  ****    0 ROOT
