@<TRIPOS>MOLECULE
CXO
   16    16     1     0     0
SMALL
No Charge or Current Charge


@<TRIPOS>ATOM
      1 O2          -1.7060     1.4460     0.3400 o          1 CXO      -0.470100
      2 C2          -0.7370     0.7870    -0.0340 c          1 CXO       0.471100
      3 C3           0.5820     1.4590    -0.4580 c6         1 CXO      -0.179400
      4 C4           1.8280     0.7470     0.1280 c6         1 CXO      -0.070900
      5 C5           1.8260    -0.7730    -0.1800 c6         1 CXO      -0.070900
      6 C6           0.5620    -1.4750     0.3800 c6         1 CXO      -0.179400
      7 C1          -0.7430    -0.7940    -0.0700 c          1 CXO       0.471100
      8 O1          -1.7090    -1.4450    -0.4640 o          1 CXO      -0.470100
      9 H31          0.6510     1.3290    -1.5470 hc         1 CXO       0.073200
     10 H32          0.5570     2.5340    -0.2350 hc         1 CXO       0.073200
     11 H41          2.7410     1.2040    -0.2800 hc         1 CXO       0.051200
     12 H42          1.8670     0.9040     1.2150 hc         1 CXO       0.051200
     13 H51          1.8850    -0.9310    -1.2670 hc         1 CXO       0.051200
     14 H52          2.7260    -1.2370     0.2460 hc         1 CXO       0.051200
     15 H61          0.5340    -2.5500     0.1560 hc         1 CXO       0.073200
     16 H62          0.6110    -1.3460     1.4700 hc         1 CXO       0.073200
@<TRIPOS>BOND
     1     1     2 2   
     2     2     3 1   
     3     2     7 1   
     4     3     4 1   
     5     3     9 1   
     6     3    10 1   
     7     4     5 1   
     8     4    11 1   
     9     4    12 1   
    10     5     6 1   
    11     5    13 1   
    12     5    14 1   
    13     6     7 1   
    14     6    15 1   
    15     6    16 1   
    16     7     8 2   
@<TRIPOS>SUBSTRUCTURE
     1 CXO         1 TEMP              0 ****  ****    0 ROOT
