@<TRIPOS>MOLECULE
CXP
   26    26     1     0     0
SMALL
No Charge or Current Charge


@<TRIPOS>ATOM
      1 C1           0.1830     0.3000    -0.8160 c6         1 CXP      -0.063700
      2 C2           1.3120    -0.1270    -1.7990 c6         1 CXP      -0.071400
      3 C3           0.9740     0.2520    -3.2620 c6         1 CXP      -0.072900
      4 C4          -0.3800    -0.3550    -3.6980 c6         1 CXP      -0.071400
      5 C5          -1.5140     0.0700    -2.7350 c6         1 CXP      -0.072900
      6 C6          -1.1790    -0.3040    -1.2690 c6         1 CXP      -0.071400
      7 C7           0.5570    -0.0810     0.6510 c3         1 CXP      -0.052400
      8 C8          -0.4180     0.4260     1.7460 c3         1 CXP      -0.205400
      9 C9           0.1550     0.1310     3.1450 c          1 CXP       0.716000
     10 O1          -0.1050    -0.9460     3.6600 o          1 CXP      -0.744000
     11 O2           0.8820     0.9670     3.6590 o          1 CXP      -0.744000
     12 H1           0.1040     1.3960    -0.8420 hc         1 CXP       0.034700
     13 H21          2.2600     0.3470    -1.5110 hc         1 CXP       0.038450
     14 H22          1.4740    -1.2120    -1.7310 hc         1 CXP       0.038450
     15 H31          0.9390     1.3460    -3.3620 hc         1 CXP       0.026200
     16 H32          1.7710    -0.0980    -3.9310 hc         1 CXP       0.026200
     17 H41         -0.6210    -0.0350    -4.7210 hc         1 CXP       0.024700
     18 H42         -0.3050    -1.4510    -3.7220 hc         1 CXP       0.024700
     19 H51         -1.6770     1.1540    -2.8110 hc         1 CXP       0.026200
     20 H52         -2.4560    -0.4090    -3.0350 hc         1 CXP       0.026200
     21 H61         -1.1560    -1.3980    -1.1650 hc         1 CXP       0.038450
     22 H62         -1.9910     0.0530    -0.6210 hc         1 CXP       0.038450
     23 H71          1.5530     0.3210     0.8760 hc         1 CXP       0.039700
     24 H72          0.6480    -1.1710     0.7390 hc         1 CXP       0.039700
     25 H81         -1.3560    -0.1230     1.6010 hc         1 CXP       0.015200
     26 H82         -0.5090     1.5080     1.5910 hc         1 CXP       0.015200
@<TRIPOS>BOND
     1     1     2 1   
     2     1     6 1   
     3     1     7 1   
     4     1    12 1   
     5     2     3 1   
     6     2    13 1   
     7     2    14 1   
     8     3     4 1   
     9     3    15 1   
    10     3    16 1   
    11     4     5 1   
    12     4    17 1   
    13     4    18 1   
    14     5     6 1   
    15     5    19 1   
    16     5    20 1   
    17     6    21 1   
    18     6    22 1   
    19     7     8 1   
    20     7    23 1   
    21     7    24 1   
    22     8     9 1   
    23     8    25 1   
    24     8    26 1   
    25     9    10 1   
    26     9    11 1   
@<TRIPOS>SUBSTRUCTURE
     1 CXP         1 TEMP              0 ****  ****    0 ROOT
