@<TRIPOS>MOLECULE
CXP
   26    26     1     0     0
SMALL
bcc


@<TRIPOS>ATOM
      1 C1           0.1820     0.2860    -0.8140 c6         1 CXP      -0.063700
      2 C2           1.3110     0.0260    -1.8120 c6         1 CXP      -0.071400
      3 C3           0.9200     0.3960    -3.2380 c6         1 CXP      -0.072900
      4 C4          -0.3480    -0.3320    -3.6720 c6         1 CXP      -0.071400
      5 C5          -1.4860    -0.0840    -2.6890 c6         1 CXP      -0.072900
      6 C6          -1.0850    -0.4450    -1.2620 c6         1 CXP      -0.071400
      7 C7           0.6060    -0.0840     0.6070 c3         1 CXP      -0.052400
      8 C8          -0.3610     0.3840     1.6830 c3         1 CXP      -0.205400
      9 C9           0.0550     0.1070     3.1380 c          1 CXP       0.926600
     10 O1          -0.7510     0.4840     4.0160 o          1 CXP      -0.849300
     11 O2           1.1470    -0.4600     3.3380 o          1 CXP      -0.849300
     12 H1          -0.0310     1.3650    -0.8350 hc         1 CXP       0.034700
     13 H21          2.2030     0.5820    -1.5080 hc         1 CXP       0.038450
     14 H22          1.5850    -1.0360    -1.7740 hc         1 CXP       0.038450
     15 H31          0.7510     1.4780    -3.2980 hc         1 CXP       0.026200
     16 H32          1.7400     0.1750    -3.9260 hc         1 CXP       0.026200
     17 H41         -0.6400    -0.0220    -4.6780 hc         1 CXP       0.024700
     18 H42         -0.1450    -1.4080    -3.7260 hc         1 CXP       0.024700
     19 H51         -1.7720     0.9730    -2.7270 hc         1 CXP       0.026200
     20 H52         -2.3720    -0.6520    -2.9860 hc         1 CXP       0.026200
     21 H61         -0.9090    -1.5270    -1.1960 hc         1 CXP       0.038450
     22 H62         -1.9130    -0.2290    -0.5810 hc         1 CXP       0.038450
     23 H71          1.5920     0.3470     0.8040 hc         1 CXP       0.039700
     24 H72          0.7390    -1.1690     0.6690 hc         1 CXP       0.039700
     25 H81         -1.3510    -0.0590     1.5280 hc         1 CXP       0.015200
     26 H82         -0.5210     1.4650     1.5780 hc         1 CXP       0.015200
@<TRIPOS>BOND
     1     1     2 1   
     2     1     6 1   
     3     1     7 1   
     4     1    12 1   
     5     2     3 1   
     6     2    13 1   
     7     2    14 1   
     8     3     4 1   
     9     3    15 1   
    10     3    16 1   
    11     4     5 1   
    12     4    17 1   
    13     4    18 1   
    14     5     6 1   
    15     5    19 1   
    16     5    20 1   
    17     6    21 1   
    18     6    22 1   
    19     7     8 1   
    20     7    23 1   
    21     7    24 1   
    22     8     9 1   
    23     8    25 1   
    24     8    26 1   
    25     9    10 1   
    26     9    11 1   
@<TRIPOS>SUBSTRUCTURE
     1 CXP         1 TEMP              0 ****  ****    0 ROOT
