@<TRIPOS>MOLECULE
CXQ
   48    51     1     0     0
SMALL
No Charge or Current Charge


@<TRIPOS>ATOM
      1 C17          5.4540    -0.4760    -0.2380 c3         1 CXQ       0.147100
      2 N1           4.0210    -0.8650    -0.1890 n3         1 CXQ      -0.698600
      3 C3           3.3440    -0.6380     1.1160 c5         1 CXQ       0.161500
      4 C12          3.0940     0.9050     1.0840 c5         1 CXQ      -0.099400
      5 C13          2.9450     1.2330    -0.4440 c5         1 CXQ      -0.099400
      6 C2           3.1350    -0.1510    -1.1460 c5         1 CXQ       0.161500
      7 C8           2.0630    -1.5250     1.1550 c6         1 CXQ      -0.074400
      8 C6           1.0670    -1.2130     0.0130 c6         1 CXQ       0.177300
      9 C7           1.8390    -0.9960    -1.3200 c6         1 CXQ      -0.074400
     10 O1           0.2290    -0.0900     0.3860 os         1 CXQ      -0.459000
     11 C1          -0.9160     0.2350    -0.4330 c3         1 CXQ       0.267900
     12 C5          -1.9100    -0.9300    -0.4290 ca         1 CXQ      -0.098300
     13 C19         -2.3660    -1.4720    -1.6480 ca         1 CXQ      -0.092750
     14 C23         -3.2760    -2.5430    -1.6530 ca         1 CXQ      -0.114000
     15 C26         -3.7370    -3.0810    -0.4400 ca         1 CXQ      -0.107000
     16 C21         -3.2870    -2.5470     0.7790 ca         1 CXQ      -0.114000
     17 C9          -2.3780    -1.4750     0.7850 ca         1 CXQ      -0.092750
     18 C10         -2.2000     2.3900    -0.8300 ca         1 CXQ      -0.092750
     19 C22         -2.8030     3.5790    -0.3830 ca         1 CXQ      -0.114000
     20 C25         -2.7720     3.9140     0.9800 ca         1 CXQ      -0.107000
     21 C24         -2.1390     3.0590     1.8970 ca         1 CXQ      -0.114000
     22 C18         -1.5350     1.8700     1.4510 ca         1 CXQ      -0.092750
     23 C4          -1.5590     1.5260     0.0810 ca         1 CXQ      -0.098300
     24 H1           6.0310    -1.0520     0.4980 h1         1 CXQ       0.030033
     25 H2           5.8710    -0.6840    -1.2320 h1         1 CXQ       0.030033
     26 H3           5.5990     0.5910    -0.0240 h1         1 CXQ       0.030033
     27 H5           3.9790    -0.9230     1.9670 h1         1 CXQ       0.058700
     28 H6           2.2110     1.1930     1.6650 hc         1 CXQ       0.049450
     29 H7           3.9410     1.4490     1.5170 hc         1 CXQ       0.049450
     30 H8           1.9790     1.6900    -0.6850 hc         1 CXQ       0.049450
     31 H9           3.7140     1.9450    -0.7650 hc         1 CXQ       0.049450
     32 H10          3.6010    -0.0380    -2.1360 h1         1 CXQ       0.058700
     33 H11          2.3630    -2.5800     1.0920 hc         1 CXQ       0.051950
     34 H12          1.5620    -1.4110     2.1260 hc         1 CXQ       0.051950
     35 H13          0.4110    -2.0880    -0.1050 h1         1 CXQ       0.042700
     36 H14          1.2010    -0.5420    -2.0860 hc         1 CXQ       0.051950
     37 H15          2.1200    -1.9770    -1.7240 hc         1 CXQ       0.051950
     38 H16         -0.5980     0.4230    -1.4660 h1         1 CXQ       0.042700
     39 H17         -2.0160    -1.0640    -2.5940 ha         1 CXQ       0.115500
     40 H18         -3.6230    -2.9570    -2.5970 ha         1 CXQ       0.111500
     41 H19         -4.4410    -3.9110    -0.4440 ha         1 CXQ       0.111500
     42 H20         -3.6420    -2.9630     1.7190 ha         1 CXQ       0.111500
     43 H21         -2.0320    -1.0710     1.7330 ha         1 CXQ       0.115500
     44 H23         -3.2950     4.2390    -1.0940 ha         1 CXQ       0.111500
     45 H24         -3.2390     4.8340     1.3260 ha         1 CXQ       0.111500
     46 H25         -2.1150     3.3160     2.9530 ha         1 CXQ       0.111500
     47 H26         -1.0500     1.2180     2.1730 ha         1 CXQ       0.115500
     48 H22         -2.2340     2.1390    -1.8880 ha         1 CXQ       0.115500
@<TRIPOS>BOND
     1     1     2 1   
     2     1    24 1   
     3     1    25 1   
     4     1    26 1   
     5     2     3 1   
     6     2     6 1   
     7     3     4 1   
     8     3     7 1   
     9     3    27 1   
    10     4     5 1   
    11     4    28 1   
    12     4    29 1   
    13     5     6 1   
    14     5    30 1   
    15     5    31 1   
    16     6     9 1   
    17     6    32 1   
    18     7     8 1   
    19     7    33 1   
    20     7    34 1   
    21     8     9 1   
    22     8    10 1   
    23     8    35 1   
    24     9    36 1   
    25     9    37 1   
    26    10    11 1   
    27    11    12 1   
    28    11    23 1   
    29    11    38 1   
    30    12    13 ar  
    31    12    17 ar  
    32    13    14 ar  
    33    13    39 1   
    34    14    15 ar  
    35    14    40 1   
    36    15    16 ar  
    37    15    41 1   
    38    16    17 ar  
    39    16    42 1   
    40    17    43 1   
    41    18    19 ar  
    42    18    23 ar  
    43    18    48 1   
    44    19    20 ar  
    45    19    44 1   
    46    20    21 ar  
    47    20    45 1   
    48    21    22 ar  
    49    21    46 1   
    50    22    23 ar  
    51    22    47 1   
@<TRIPOS>SUBSTRUCTURE
     1 CXQ         1 TEMP              0 ****  ****    0 ROOT
