@<TRIPOS>MOLECULE
CXQ
   48    51     1     0     0
SMALL
bcc


@<TRIPOS>ATOM
      1 C17          5.3920    -0.4190    -0.0180 c3         1 CXQ       0.147100
      2 N1           4.0110    -0.8230    -0.1880 n3         1 CXQ      -0.698600
      3 C3           3.2430    -0.7920     1.0560 c5         1 CXQ       0.161500
      4 C12          2.9420     0.7040     1.3040 c5         1 CXQ      -0.099400
      5 C13          2.9280     1.3070    -0.1150 c5         1 CXQ      -0.099400
      6 C2           3.2400     0.0960    -1.0260 c5         1 CXQ       0.161500
      7 C8           1.9880    -1.6360     0.8360 c6         1 CXQ      -0.074400
      8 C6           1.1220    -1.1420    -0.3220 c6         1 CXQ       0.154100
      9 C7           1.9870    -0.6470    -1.4870 c6         1 CXQ      -0.074400
     10 O1           0.2760    -0.1150     0.1790 os         1 CXQ      -0.412600
     11 C1          -0.8830     0.1300    -0.5620 c3         1 CXQ       0.244700
     12 C5          -1.9030    -0.9840    -0.4020 ca         1 CXQ      -0.098300
     13 C19         -2.6450    -1.4240    -1.4920 ca         1 CXQ      -0.110750
     14 C23         -3.6100    -2.4130    -1.3410 ca         1 CXQ      -0.132000
     15 C26         -3.8340    -2.9790    -0.0940 ca         1 CXQ      -0.125000
     16 C21         -3.0890    -2.5500     0.9990 ca         1 CXQ      -0.132000
     17 C9          -2.1320    -1.5570     0.8470 ca         1 CXQ      -0.110750
     18 C10         -2.2980     2.1620    -0.9620 ca         1 CXQ      -0.110750
     19 C22         -2.9020     3.3400    -0.5480 ca         1 CXQ      -0.132000
     20 C25         -2.6940     3.8140     0.7410 ca         1 CXQ      -0.125000
     21 C24         -1.8760     3.1000     1.6070 ca         1 CXQ      -0.132000
     22 C18         -1.2720     1.9200     1.1920 ca         1 CXQ      -0.110750
     23 C4          -1.4800     1.4400    -0.0970 ca         1 CXQ      -0.098300
     24 H1           5.8870    -1.1040     0.6720 h1         1 CXQ       0.030033
     25 H2           5.9150    -0.4820    -0.9730 h1         1 CXQ       0.030033
     26 H3           5.5370     0.5990     0.3700 h1         1 CXQ       0.030033
     27 H5           3.8250    -1.2360     1.8680 h1         1 CXQ       0.058700
     28 H6           2.0060     0.8550     1.8400 hc         1 CXQ       0.049450
     29 H7           3.7320     1.1530     1.9080 hc         1 CXQ       0.049450
     30 H8           1.9770     1.7760    -0.3630 hc         1 CXQ       0.049450
     31 H9           3.6980     2.0720    -0.2230 hc         1 CXQ       0.049450
     32 H10          3.8220     0.3830    -1.9050 h1         1 CXQ       0.058700
     33 H11          2.3090    -2.6570     0.6150 hc         1 CXQ       0.051950
     34 H12          1.3840    -1.6820     1.7460 hc         1 CXQ       0.051950
     35 H13          0.5030    -1.9770    -0.6730 h1         1 CXQ       0.042700
     36 H14          1.3980    -0.0210    -2.1630 hc         1 CXQ       0.051950
     37 H15          2.3050    -1.5140    -2.0720 hc         1 CXQ       0.051950
     38 H16         -0.6580     0.2270    -1.6360 h1         1 CXQ       0.042700
     39 H17         -2.4670    -0.9940    -2.4710 ha         1 CXQ       0.133500
     40 H18         -4.1800    -2.7440    -2.1990 ha         1 CXQ       0.129500
     41 H19         -4.5810    -3.7530     0.0250 ha         1 CXQ       0.129500
     42 H20         -3.2560    -2.9900     1.9740 ha         1 CXQ       0.129500
     43 H21         -1.5590    -1.2310     1.7060 ha         1 CXQ       0.133500
     44 H23         -3.5340     3.8900    -1.2340 ha         1 CXQ       0.129500
     45 H24         -3.1620     4.7350     1.0660 ha         1 CXQ       0.129500
     46 H25         -1.7050     3.4630     2.6120 ha         1 CXQ       0.129500
     47 H26         -0.6340     1.3810     1.8790 ha         1 CXQ       0.133500
     48 H22         -2.4620     1.8030    -1.9720 ha         1 CXQ       0.133500
@<TRIPOS>BOND
     1     1     2 1   
     2     1    24 1   
     3     1    25 1   
     4     1    26 1   
     5     2     3 1   
     6     2     6 1   
     7     3     4 1   
     8     3     7 1   
     9     3    27 1   
    10     4     5 1   
    11     4    28 1   
    12     4    29 1   
    13     5     6 1   
    14     5    30 1   
    15     5    31 1   
    16     6     9 1   
    17     6    32 1   
    18     7     8 1   
    19     7    33 1   
    20     7    34 1   
    21     8     9 1   
    22     8    10 1   
    23     8    35 1   
    24     9    36 1   
    25     9    37 1   
    26    10    11 1   
    27    11    12 1   
    28    11    23 1   
    29    11    38 1   
    30    12    13 ar  
    31    12    17 ar  
    32    13    14 ar  
    33    13    39 1   
    34    14    15 ar  
    35    14    40 1   
    36    15    16 ar  
    37    15    41 1   
    38    16    17 ar  
    39    16    42 1   
    40    17    43 1   
    41    18    19 ar  
    42    18    23 ar  
    43    18    48 1   
    44    19    20 ar  
    45    19    44 1   
    46    20    21 ar  
    47    20    45 1   
    48    21    22 ar  
    49    21    46 1   
    50    22    23 ar  
    51    22    47 1   
@<TRIPOS>SUBSTRUCTURE
     1 CXQ         1 TEMP              0 ****  ****    0 ROOT
