@<TRIPOS>MOLECULE
CXS
   32    32     1     0     0
SMALL
No Charge or Current Charge


@<TRIPOS>ATOM
      1 S           -0.0430     0.1390     3.9030 s6         1 CXS       1.323600
      2 O1          -1.4830    -0.1520     3.9720 o          1 CXS      -0.698533
      3 O2           0.2900     1.5690     3.8270 o          1 CXS      -0.698533
      4 O3           0.7790    -0.6270     4.8500 o          1 CXS      -0.698533
      5 C1           0.4570    -0.5130     2.2880 c3         1 CXS      -0.357400
      6 C2          -0.2790     0.1420     1.0910 c3         1 CXS      -0.034400
      7 C3           0.1690    -0.4330    -0.2690 c3         1 CXS       0.155800
      8 N           -0.5660     0.2160    -1.3730 n7         1 CXS      -0.865400
      9 C4          -0.2910    -0.2580    -2.7460 c6         1 CXS       0.179500
     10 C5          -1.3450     0.3240    -3.7240 c6         1 CXS      -0.076400
     11 C6          -1.0910    -0.1430    -5.1800 c6         1 CXS      -0.072400
     12 C7           0.3400     0.2240    -5.6420 c6         1 CXS      -0.073400
     13 C8           1.4020    -0.3510    -4.6740 c6         1 CXS      -0.072400
     14 C9           1.1460     0.1100    -3.2170 c6         1 CXS      -0.076400
     15 H11          1.5370    -0.3460     2.2080 h1         1 CXS       0.062200
     16 H12          0.2600    -1.5890     2.3140 h1         1 CXS       0.062200
     17 H21         -1.3610    -0.0040     1.2020 hc         1 CXS       0.053200
     18 H22         -0.0970     1.2250     1.0960 hc         1 CXS       0.053200
     19 H31          1.2500    -0.2770    -0.3780 h1         1 CXS       0.020200
     20 H32         -0.0170    -1.5160    -0.2770 h1         1 CXS       0.020200
     21 HN          -1.5660     0.0790    -1.1920 hn         1 CXS       0.405000
     22 H4          -0.3920    -1.3540    -2.7560 h1         1 CXS       0.009700
     23 H51         -2.3540     0.0170    -3.4150 hc         1 CXS       0.046450
     24 H52         -1.3260     1.4220    -3.6840 hc         1 CXS       0.046450
     25 H61         -1.2360    -1.2300    -5.2500 hc         1 CXS       0.031700
     26 H62         -1.8290     0.3150    -5.8530 hc         1 CXS       0.031700
     27 H71          0.5130    -0.1590    -6.6570 hc         1 CXS       0.032200
     28 H72          0.4420     1.3170    -5.6980 hc         1 CXS       0.032200
     29 H81          1.3880    -1.4490    -4.7210 hc         1 CXS       0.031700
     30 H82          2.4050    -0.0380    -4.9940 hc         1 CXS       0.031700
     31 H91          1.2950     1.1960    -3.1430 hc         1 CXS       0.046450
     32 H92          1.8940    -0.3540    -2.5620 hc         1 CXS       0.046450
@<TRIPOS>BOND
     1     1     2 1   
     2     1     3 1   
     3     1     4 1   
     4     1     5 1   
     5     5     6 1   
     6     5    15 1   
     7     5    16 1   
     8     6     7 1   
     9     6    17 1   
    10     6    18 1   
    11     7     8 1   
    12     7    19 1   
    13     7    20 1   
    14     8     9 1   
    15     8    21 1   
    16     9    10 1   
    17     9    14 1   
    18     9    22 1   
    19    10    11 1   
    20    10    23 1   
    21    10    24 1   
    22    11    12 1   
    23    11    25 1   
    24    11    26 1   
    25    12    13 1   
    26    12    27 1   
    27    12    28 1   
    28    13    14 1   
    29    13    29 1   
    30    13    30 1   
    31    14    31 1   
    32    14    32 1   
@<TRIPOS>SUBSTRUCTURE
     1 CXS         1 TEMP              0 ****  ****    0 ROOT
