@<TRIPOS>MOLECULE
CXS
   32    32     1     0     0
SMALL
abcg2


@<TRIPOS>ATOM
      1 S            0.0450     0.1110     3.8010 s6         1 CXS       1.323600
      2 O1          -1.4130    -0.0480     3.9750 o          1 CXS      -0.698533
      3 O2           0.4720     1.5260     3.7770 o          1 CXS      -0.698533
      4 O3           0.8340    -0.7130     4.7390 o          1 CXS      -0.698533
      5 C1           0.4250    -0.5450     2.1680 c3         1 CXS      -0.357400
      6 C2          -0.3170     0.1580     1.0450 c3         1 CXS      -0.034400
      7 C3           0.0980    -0.3920    -0.3130 c3         1 CXS       0.155800
      8 N           -0.6090     0.2770    -1.3880 n7         1 CXS      -0.865400
      9 C4          -0.3090    -0.2430    -2.7160 c6         1 CXS       0.179500
     10 C5          -1.3350     0.2880    -3.7130 c6         1 CXS      -0.076400
     11 C6          -1.0460    -0.1850    -5.1340 c6         1 CXS      -0.072400
     12 C7           0.3650     0.1940    -5.5690 c6         1 CXS      -0.073400
     13 C8           1.3980    -0.3280    -4.5770 c6         1 CXS      -0.072400
     14 C9           1.0990     0.1490    -3.1580 c6         1 CXS      -0.076400
     15 H11          1.5060    -0.4540     2.0370 h1         1 CXS       0.062200
     16 H12          0.1870    -1.6110     2.1880 h1         1 CXS       0.062200
     17 H21         -1.3950     0.0300     1.1790 hc         1 CXS       0.053200
     18 H22         -0.1130     1.2300     1.0770 hc         1 CXS       0.053200
     19 H31          1.1730    -0.2340    -0.4380 h1         1 CXS       0.020200
     20 H32         -0.0530    -1.4840    -0.3290 h1         1 CXS       0.020200
     21 HN          -1.6040     0.1680    -1.2250 hn         1 CXS       0.405000
     22 H4          -0.3680    -1.3480    -2.7310 h1         1 CXS       0.009700
     23 H51         -2.3390    -0.0240    -3.4110 hc         1 CXS       0.046450
     24 H52         -1.3230     1.3840    -3.6770 hc         1 CXS       0.046450
     25 H61         -1.1580    -1.2740    -5.1830 hc         1 CXS       0.031700
     26 H62         -1.7830     0.2320    -5.8230 hc         1 CXS       0.031700
     27 H71          0.5710    -0.1910    -6.5700 hc         1 CXS       0.032200
     28 H72          0.4450     1.2850    -5.6330 hc         1 CXS       0.032200
     29 H81          1.4010    -1.4240    -4.6010 hc         1 CXS       0.031700
     30 H82          2.4020    -0.0130    -4.8700 hc         1 CXS       0.031700
     31 H91          1.1860     1.2410    -3.1090 hc         1 CXS       0.046450
     32 H92          1.8470    -0.2570    -2.4720 hc         1 CXS       0.046450
@<TRIPOS>BOND
     1     1     2 1   
     2     1     3 1   
     3     1     4 1   
     4     1     5 1   
     5     5     6 1   
     6     5    15 1   
     7     5    16 1   
     8     6     7 1   
     9     6    17 1   
    10     6    18 1   
    11     7     8 1   
    12     7    19 1   
    13     7    20 1   
    14     8     9 1   
    15     8    21 1   
    16     9    10 1   
    17     9    14 1   
    18     9    22 1   
    19    10    11 1   
    20    10    23 1   
    21    10    24 1   
    22    11    12 1   
    23    11    25 1   
    24    11    26 1   
    25    12    13 1   
    26    12    27 1   
    27    12    28 1   
    28    13    14 1   
    29    13    29 1   
    30    13    30 1   
    31    14    31 1   
    32    14    32 1   
@<TRIPOS>SUBSTRUCTURE
     1 CXS         1 TEMP              0 ****  ****    0 ROOT
