@<TRIPOS>MOLECULE
CXT
   93    97     1     0     0
SMALL
bcc


@<TRIPOS>ATOM
      1 C1          -1.2780    -0.8000    -0.1650 c6         1 CXT       0.340900
      2 O1          -1.6480    -2.1110    -0.5060 os         1 CXT      -0.444600
      3 S1          -5.5810     1.6910    -0.0650 s6         1 CXT       1.513300
      4 C2          -2.3370     0.1690    -0.6860 c6         1 CXT       0.093100
      5 O2          -0.0800    -0.5280    -0.7780 os         1 CXT      -0.430600
      6 S2          -6.4890    -2.5770    -0.7210 s6         1 CXT       1.509300
      7 C3          -3.7310    -0.2030    -0.2030 c6         1 CXT       0.190100
      8 O3          -2.0110     1.4460    -0.1680 os         1 CXT      -0.390900
      9 C4          -4.0110    -1.6810    -0.4750 c6         1 CXT       0.171100
     10 O4          -4.6760     0.5890    -0.8900 os         1 CXT      -0.549500
     11 C5          -2.8600    -2.5250     0.0900 c6         1 CXT       0.139100
     12 O5          -5.2150    -2.0380     0.1760 os         1 CXT      -0.551500
     13 C6          -3.0210    -4.0060    -0.1770 c3         1 CXT       0.135400
     14 O6          -6.5070     2.1120    -1.1130 o          1 CXT      -0.720200
     15 C7          -1.7800     2.4810    -0.9720 c          1 CXT       0.693100
     16 O7          -6.1950     0.9670     1.0500 o          1 CXT      -0.720200
     17 C8          -1.3160     3.6680    -0.1720 c3         1 CXT      -0.150400
     18 O8          -4.6450     2.7320     0.3660 o          1 CXT      -0.720200
     19 C9          -1.0870     4.9400    -0.9810 c3         1 CXT      -0.041700
     20 O9          -6.9110    -1.4610    -1.5640 o          1 CXT      -0.723200
     21 C10         -2.4040     5.5910    -1.3890 c3         1 CXT      -0.088100
     22 O10         -5.9710    -3.7180    -1.4840 o          1 CXT      -0.723200
     23 C11         -0.2250     5.9040    -0.1720 c3         1 CXT      -0.088100
     24 O11         -7.4220    -2.9330     0.3450 o          1 CXT      -0.723200
     25 O12         -1.9460    -4.6820     0.4340 oh         1 CXT      -0.592800
     26 O13         -1.8870     2.4370    -2.1710 o          1 CXT      -0.592000
     27 C21          2.2810    -0.7250    -0.7970 c6         1 CXT      -0.063400
     28 O21          8.0490     0.9700    -1.8410 oh         1 CXT      -0.586800
     29 C22          1.0730    -0.4470     0.0760 c6         1 CXT       0.155100
     30 O22          1.4390    -0.2070     3.1760 o          1 CXT      -0.870300
     31 C23          1.1590     0.9300     0.7010 c6         1 CXT      -0.064400
     32 O23          3.4860     0.5540     3.5450 o          1 CXT      -0.870300
     33 C24          2.4500     1.1860     1.4920 c6         1 CXT      -0.281000
     34 O24          1.8060     3.0210     2.8800 o          1 CXT      -0.870300
     35 C25          3.6440     0.8630     0.5680 c6         1 CXT      -0.000700
     36 O25          2.8270     3.5190     0.9740 o          1 CXT      -0.870300
     37 C26          5.0260     1.1910     1.1190 c6         1 CXT      -0.056400
     38 C27          6.0400     1.2420    -0.0110 c6         1 CXT      -0.057400
     39 C28          6.1550    -0.0870    -0.7520 c5         1 CXT      -0.019000
     40 C29          4.7470    -0.6090    -1.1570 c6         1 CXT      -0.041700
     41 C30          3.6280    -0.5520    -0.0630 c6         1 CXT      -0.019000
     42 C31          4.8530    -1.9690    -1.8860 c6         1 CXT      -0.071400
     43 C32          5.9110    -2.9330    -1.3470 c6         1 CXT      -0.057400
     44 C33          7.2240    -2.1990    -1.0580 c5         1 CXT      -0.042500
     45 C34          6.9680    -1.1450     0.0170 c5         1 CXT      -0.064400
     46 C35          7.0030     0.0350    -2.0460 c5         1 CXT       0.159300
     47 C36          7.5790    -1.3550    -2.2550 c2         1 CXT      -0.096400
     48 C37          2.4570     0.4440     2.8470 c          1 CXT       0.953600
     49 C38          2.3810     2.7130     1.8160 c          1 CXT       0.953600
     50 C39          3.7500    -1.6730     0.9740 c3         1 CXT      -0.077100
     51 C40          8.2890    -1.7300    -3.3120 c2         1 CXT      -0.284000
     52 H1          -1.2060    -0.7080     0.9340 h2         1 CXT       0.065700
     53 H2          -2.3130     0.1630    -1.7800 h1         1 CXT       0.082700
     54 H3          -3.7860    -0.0490     0.8830 h1         1 CXT       0.069700
     55 H4          -4.0690    -1.8470    -1.5580 h1         1 CXT       0.055700
     56 H5          -2.8160    -2.3690     1.1820 h1         1 CXT       0.055700
     57 H6          -3.9830    -4.3330     0.2250 h1         1 CXT       0.039700
     58 H6A         -3.0480    -4.1760    -1.2620 h1         1 CXT       0.039700
     59 H8          -2.0370     3.8450     0.6310 hc         1 CXT       0.105700
     60 H8A         -0.3870     3.3690     0.3240 hc         1 CXT       0.105700
     61 H9          -0.5340     4.6730    -1.8880 hc         1 CXT       0.044700
     62 H10         -3.0440     4.9040    -1.9430 hc         1 CXT       0.026367
     63 H10A        -2.9580     5.9230    -0.5080 hc         1 CXT       0.026367
     64 H10B        -2.2310     6.4660    -2.0180 hc         1 CXT       0.026367
     65 H11          0.7320     5.4490     0.0940 hc         1 CXT       0.026367
     66 H11A        -0.0220     6.8180    -0.7310 hc         1 CXT       0.026367
     67 H11B        -0.7250     6.1890     0.7570 hc         1 CXT       0.026367
     68 HO12        -2.1010    -5.6260     0.3400 ho         1 CXT       0.363000
     69 H21          2.1930    -1.7320    -1.2140 hc         1 CXT       0.020200
     70 H21A         2.2550    -0.0250    -1.6430 hc         1 CXT       0.020200
     71 HO21         8.7230     0.8100    -2.5090 ho         1 CXT       0.372000
     72 H22          0.9770    -1.2050     0.8590 h1         1 CXT       0.069700
     73 H23          1.1050     1.6580    -0.1170 hc         1 CXT       0.049700
     74 H23A         0.2990     1.1070     1.3480 hc         1 CXT       0.049700
     75 H25          3.5040     1.5490    -0.2790 hc         1 CXT       0.036700
     76 H26          5.0040     2.1570     1.6220 hc         1 CXT       0.064200
     77 H26A         5.3340     0.4630     1.8710 hc         1 CXT       0.064200
     78 H27          5.7460     2.0300    -0.7150 hc         1 CXT       0.026200
     79 H27A         7.0200     1.5270     0.3780 hc         1 CXT       0.026200
     80 H29          4.4010     0.1090    -1.9130 hc         1 CXT       0.041700
     81 H31          3.8860    -2.4750    -1.9100 hc         1 CXT       0.030700
     82 H31A         5.0870    -1.7740    -2.9370 hc         1 CXT       0.030700
     83 H32          5.5720    -3.4240    -0.4310 hc         1 CXT       0.028200
     84 H32A         6.0810    -3.7220    -2.0840 hc         1 CXT       0.028200
     85 H33          8.0100    -2.9120    -0.7990 hc         1 CXT       0.030700
     86 H34          7.9090    -0.7000     0.3560 hc         1 CXT       0.053200
     87 H34A         6.4700    -1.5490     0.8960 hc         1 CXT       0.053200
     88 H35          6.3830     0.3510    -2.8980 h1         1 CXT       0.047700
     89 H39          4.6170    -1.5630     1.6210 hc         1 CXT       0.031033
     90 H39A         2.8810    -1.7080     1.6250 hc         1 CXT       0.031033
     91 H39B         3.8160    -2.6460     0.4850 hc         1 CXT       0.031033
     92 H40          8.7230    -2.7210    -3.3830 ha         1 CXT       0.092500
     93 H40A         8.4610    -1.0670    -4.1530 ha         1 CXT       0.092500
@<TRIPOS>BOND
     1     1     2 1   
     2     1     4 1   
     3     1     5 1   
     4     1    52 1   
     5     2    11 1   
     6     3    10 1   
     7     3    14 1   
     8     3    16 1   
     9     3    18 1   
    10     4     7 1   
    11     4     8 1   
    12     4    53 1   
    13     5    29 1   
    14     6    12 1   
    15     6    20 1   
    16     6    22 1   
    17     6    24 1   
    18     7     9 1   
    19     7    10 1   
    20     7    54 1   
    21     8    15 1   
    22     9    11 1   
    23     9    12 1   
    24     9    55 1   
    25    11    13 1   
    26    11    56 1   
    27    13    25 1   
    28    13    57 1   
    29    13    58 1   
    30    15    17 1   
    31    15    26 2   
    32    17    19 1   
    33    17    59 1   
    34    17    60 1   
    35    19    21 1   
    36    19    23 1   
    37    19    61 1   
    38    21    62 1   
    39    21    63 1   
    40    21    64 1   
    41    23    65 1   
    42    23    66 1   
    43    23    67 1   
    44    25    68 1   
    45    27    29 1   
    46    27    41 1   
    47    27    69 1   
    48    27    70 1   
    49    28    46 1   
    50    28    71 1   
    51    29    31 1   
    52    29    72 1   
    53    30    48 1   
    54    31    33 1   
    55    31    73 1   
    56    31    74 1   
    57    32    48 1   
    58    33    35 1   
    59    33    48 1   
    60    33    49 1   
    61    34    49 1   
    62    35    37 1   
    63    35    41 1   
    64    35    75 1   
    65    36    49 1   
    66    37    38 1   
    67    37    76 1   
    68    37    77 1   
    69    38    39 1   
    70    38    78 1   
    71    38    79 1   
    72    39    40 1   
    73    39    45 1   
    74    39    46 1   
    75    40    41 1   
    76    40    42 1   
    77    40    80 1   
    78    41    50 1   
    79    42    43 1   
    80    42    81 1   
    81    42    82 1   
    82    43    44 1   
    83    43    83 1   
    84    43    84 1   
    85    44    45 1   
    86    44    47 1   
    87    44    85 1   
    88    45    86 1   
    89    45    87 1   
    90    46    47 1   
    91    46    88 1   
    92    47    51 2   
    93    50    89 1   
    94    50    90 1   
    95    50    91 1   
    96    51    92 1   
    97    51    93 1   
@<TRIPOS>SUBSTRUCTURE
     1 CXT         1 TEMP              0 ****  ****    0 ROOT
