@<TRIPOS>MOLECULE
CXT
   93    97     1     0     0
SMALL
No Charge or Current Charge


@<TRIPOS>ATOM
      1 C1          -1.2890    -0.2880    -0.0670 c6         1 CXT       0.387300
      2 O1          -1.5610    -1.6860    -0.2400 os         1 CXT      -0.491000
      3 S1          -5.7730     1.9280     0.1700 s6         1 CXT       1.513300
      4 C2          -2.4330     0.5540    -0.7110 c6         1 CXT       0.116300
      5 O2          -0.0260    -0.0190    -0.7040 os         1 CXT      -0.477000
      6 S2          -6.3600    -2.6360    -0.5950 s6         1 CXT       1.509300
      7 C3          -3.8080     0.1420    -0.0820 c6         1 CXT       0.213300
      8 O3          -2.1850     1.9730    -0.5160 os         1 CXT      -0.414100
      9 C4          -4.0120    -1.4080    -0.2910 c6         1 CXT       0.194300
     10 O4          -4.8640     0.8930    -0.7310 os         1 CXT      -0.572700
     11 C5          -2.7920    -2.1250     0.3800 c6         1 CXT       0.162300
     12 O5          -5.2410    -1.8610     0.3310 os         1 CXT      -0.574700
     13 C6          -2.8470    -3.6860     0.2820 c3         1 CXT       0.158600
     14 O6          -6.5190     2.7050    -0.8300 o          1 CXT      -0.720200
     15 C7          -1.4110     2.6870    -1.3940 c          1 CXT       0.644100
     16 O7          -6.6120     1.0550     1.0020 o          1 CXT      -0.720200
     17 C8          -1.1520     4.1110    -0.8980 c3         1 CXT      -0.150400
     18 O8          -4.7960     2.7130     0.9380 o          1 CXT      -0.720200
     19 C9          -1.9330     5.1840    -1.7030 c3         1 CXT      -0.041700
     20 O9          -6.7350    -1.6610    -1.6280 o          1 CXT      -0.723200
     21 C10         -3.4650     5.0010    -1.6060 c3         1 CXT      -0.088100
     22 O10         -5.6430    -3.8060    -1.1180 o          1 CXT      -0.723200
     23 C11         -1.5160     6.6110    -1.2800 c3         1 CXT      -0.088100
     24 O11         -7.4370    -2.9640     0.3510 o          1 CXT      -0.723200
     25 O12         -1.6990    -4.3420     0.8610 oh         1 CXT      -0.715000
     26 O13         -0.9720     2.2530    -2.4510 o          1 CXT      -0.543000
     27 C21          2.3680    -0.4120    -0.8430 c6         1 CXT      -0.063400
     28 O21          8.6270     0.6740    -1.2760 oh         1 CXT      -0.649000
     29 C22          1.1450    -0.2780     0.0980 c6         1 CXT       0.178300
     30 O22          1.4150    -0.8870     3.2800 o          1 CXT      -0.765000
     31 C23          1.3720     0.8730     1.1120 c6         1 CXT      -0.064400
     32 O23          3.4570    -0.6190     3.8190 o          1 CXT      -0.765000
     33 C24          2.6630     0.7250     2.0030 c6         1 CXT      -0.281000
     34 O24          2.0860     2.1640     3.8310 o          1 CXT      -0.765000
     35 C25          3.8850     0.5460     0.9550 c6         1 CXT      -0.000700
     36 O25          3.5400     2.9120     2.4670 o          1 CXT      -0.765000
     37 C26          5.2960     0.4850     1.6150 c6         1 CXT      -0.056400
     38 C27          6.3870     0.7280     0.5540 c6         1 CXT      -0.057400
     39 C28          6.4120    -0.3460    -0.5770 c5         1 CXT      -0.019000
     40 C29          4.9310    -0.5050    -1.1580 c6         1 CXT      -0.041700
     41 C30          3.7320    -0.6350    -0.0950 c6         1 CXT      -0.019000
     42 C31          4.9160    -1.5720    -2.3210 c6         1 CXT      -0.071400
     43 C32          5.8230    -2.8130    -2.0750 c6         1 CXT      -0.057400
     44 C33          7.2000    -2.4020    -1.5010 c5         1 CXT      -0.042500
     45 C34          7.0730    -1.6990    -0.1290 c5         1 CXT      -0.064400
     46 C35          7.4370     0.0310    -1.7360 c5         1 CXT       0.182500
     47 C36          7.8320    -1.3110    -2.3390 c2         1 CXT      -0.096400
     48 C37          2.5300    -0.4400     3.0420 c          1 CXT       0.743000
     49 C38          2.7280     2.0590     2.7950 c          1 CXT       0.743000
     50 C39          3.6780    -2.0580     0.5770 c3         1 CXT      -0.077100
     51 C40          8.6220    -1.5000    -3.4070 c2         1 CXT      -0.384000
     52 H1          -1.2360    -0.0480     1.0060 h2         1 CXT       0.065700
     53 H2          -2.4750     0.3370    -1.7870 h1         1 CXT       0.082700
     54 H3          -3.7920     0.3530     0.9980 h1         1 CXT       0.069700
     55 H4          -4.0190    -1.6340    -1.3680 h1         1 CXT       0.055700
     56 H5          -2.7620    -1.8620     1.4480 h1         1 CXT       0.055700
     57 H6          -3.7590    -4.0300     0.7890 h1         1 CXT       0.039700
     58 H6A         -2.9380    -3.9580    -0.7790 h1         1 CXT       0.039700
     59 H8          -1.4370     4.1800     0.1580 hc         1 CXT       0.105700
     60 H8A         -0.0790     4.3040    -1.0000 hc         1 CXT       0.105700
     61 H9          -1.6580     5.0710    -2.7600 hc         1 CXT       0.044700
     62 H10         -3.7700     4.0190    -1.9880 hc         1 CXT       0.026367
     63 H10A        -3.8030     5.0870    -0.5670 hc         1 CXT       0.026367
     64 H10B        -3.9840     5.7640    -2.1980 hc         1 CXT       0.026367
     65 H11         -0.4370     6.7550    -1.4100 hc         1 CXT       0.026367
     66 H11A        -2.0320     7.3620    -1.8900 hc         1 CXT       0.026367
     67 H11B        -1.7640     6.7940    -0.2280 hc         1 CXT       0.026367
     68 HO12        -1.7980    -5.3040     0.6800 ho         1 CXT       0.462000
     69 H21          2.1600    -1.2410    -1.5290 hc         1 CXT       0.020200
     70 H21A         2.4290     0.4910    -1.4670 hc         1 CXT       0.020200
     71 HO21         9.3460     0.3140    -1.8370 ho         1 CXT       0.411000
     72 H22          0.9890    -1.2250     0.6330 h1         1 CXT       0.069700
     73 H23          1.4350     1.8140     0.5470 hc         1 CXT       0.049700
     74 H23A         0.4910     0.9900     1.7560 hc         1 CXT       0.049700
     75 H25          3.8790     1.4680     0.3550 hc         1 CXT       0.036700
     76 H26          5.4020     1.2420     2.4000 hc         1 CXT       0.064200
     77 H26A         5.4690    -0.4750     2.1130 hc         1 CXT       0.064200
     78 H27          6.2440     1.7240     0.1110 hc         1 CXT       0.026200
     79 H27A         7.3620     0.7630     1.0600 hc         1 CXT       0.026200
     80 H29          4.7380     0.4520    -1.6640 hc         1 CXT       0.041700
     81 H31          3.9050    -1.9140    -2.5630 hc         1 CXT       0.030700
     82 H31A         5.2580    -1.0800    -3.2410 hc         1 CXT       0.030700
     83 H32          5.3430    -3.5260    -1.3940 hc         1 CXT       0.028200
     84 H32A         5.9640    -3.3510    -3.0230 hc         1 CXT       0.028200
     85 H33          7.8170    -3.3080    -1.4560 hc         1 CXT       0.030700
     86 H34          8.0580    -1.5420     0.3280 hc         1 CXT       0.053200
     87 H34A         6.4990    -2.2830     0.5890 hc         1 CXT       0.053200
     88 H35          6.9510     0.6690    -2.4870 h1         1 CXT       0.047700
     89 H39          4.5170    -2.2650     1.2390 hc         1 CXT       0.031033
     90 H39A         2.7870    -2.2030     1.1910 hc         1 CXT       0.031033
     91 H39B         3.6330    -2.8540    -0.1710 hc         1 CXT       0.031033
     92 H40          8.8620    -2.5020    -3.7650 ha         1 CXT       0.142500
     93 H40A         9.0470    -0.6630    -3.9620 ha         1 CXT       0.142500
@<TRIPOS>BOND
     1     1     2 1   
     2     1     4 1   
     3     1     5 1   
     4     1    52 1   
     5     2    11 1   
     6     3    10 1   
     7     3    14 1   
     8     3    16 1   
     9     3    18 1   
    10     4     7 1   
    11     4     8 1   
    12     4    53 1   
    13     5    29 1   
    14     6    12 1   
    15     6    20 1   
    16     6    22 1   
    17     6    24 1   
    18     7     9 1   
    19     7    10 1   
    20     7    54 1   
    21     8    15 1   
    22     9    11 1   
    23     9    12 1   
    24     9    55 1   
    25    11    13 1   
    26    11    56 1   
    27    13    25 1   
    28    13    57 1   
    29    13    58 1   
    30    15    17 1   
    31    15    26 2   
    32    17    19 1   
    33    17    59 1   
    34    17    60 1   
    35    19    21 1   
    36    19    23 1   
    37    19    61 1   
    38    21    62 1   
    39    21    63 1   
    40    21    64 1   
    41    23    65 1   
    42    23    66 1   
    43    23    67 1   
    44    25    68 1   
    45    27    29 1   
    46    27    41 1   
    47    27    69 1   
    48    27    70 1   
    49    28    46 1   
    50    28    71 1   
    51    29    31 1   
    52    29    72 1   
    53    30    48 1   
    54    31    33 1   
    55    31    73 1   
    56    31    74 1   
    57    32    48 1   
    58    33    35 1   
    59    33    48 1   
    60    33    49 1   
    61    34    49 1   
    62    35    37 1   
    63    35    41 1   
    64    35    75 1   
    65    36    49 1   
    66    37    38 1   
    67    37    76 1   
    68    37    77 1   
    69    38    39 1   
    70    38    78 1   
    71    38    79 1   
    72    39    40 1   
    73    39    45 1   
    74    39    46 1   
    75    40    41 1   
    76    40    42 1   
    77    40    80 1   
    78    41    50 1   
    79    42    43 1   
    80    42    81 1   
    81    42    82 1   
    82    43    44 1   
    83    43    83 1   
    84    43    84 1   
    85    44    45 1   
    86    44    47 1   
    87    44    85 1   
    88    45    86 1   
    89    45    87 1   
    90    46    47 1   
    91    46    88 1   
    92    47    51 2   
    93    50    89 1   
    94    50    90 1   
    95    50    91 1   
    96    51    92 1   
    97    51    93 1   
@<TRIPOS>SUBSTRUCTURE
     1 CXT         1 TEMP              0 ****  ****    0 ROOT
