@<TRIPOS>MOLECULE
CXU
   48    50     1     0     0
SMALL
bcc


@<TRIPOS>ATOM
      1 CL          -3.1390    -0.2170    -2.8100 cl         1 CXU      -0.118400
      2 C1           2.0340     2.5370    -0.4900 c          1 CXU       0.577900
      3 O1           1.4620     3.2380    -1.2800 o          1 CXU      -0.518100
      4 C2           1.3300     1.6570     0.5240 c3         1 CXU      -0.010300
      5 N2          -0.0740     1.5540     0.2530 ns         1 CXU      -0.542900
      6 C3           1.9480     0.2610     0.5900 c5         1 CXU       0.312600
      7 S4           2.1760    -0.4350    -1.1270 ss         1 CXU      -0.544200
      8 C5           3.8510    -1.0890    -0.7310 c5         1 CXU       0.088100
      9 C6           3.9320    -0.9830     0.8280 c5         1 CXU       0.023500
     10 N7           3.2230     0.2200     1.2340 n7         1 CXU      -0.745200
     11 C8           3.4450    -2.2470     1.5780 c          1 CXU       0.948600
     12 C21         -1.0160     2.2830     0.8800 c          1 CXU       0.726700
     13 O21         -0.7530     3.1960     1.6490 o          1 CXU      -0.626100
     14 C22         -2.4110     1.8920     0.6110 cc         1 CXU      -0.413200
     15 C23         -3.5040     2.6780     0.8380 cd         1 CXU       0.356000
     16 O24         -4.5940     1.9940     0.5130 os         1 CXU      -0.126100
     17 N25         -4.2680     0.7450     0.0770 nd         1 CXU      -0.351300
     18 C26         -2.9720     0.6740     0.1240 cc         1 CXU       0.428800
     19 C28         -2.2670    -0.5600    -0.2610 ca         1 CXU      -0.167500
     20 C29         -2.2700    -1.0480    -1.5650 ca         1 CXU       0.046400
     21 C30         -1.5500    -2.1840    -1.9070 ca         1 CXU      -0.132000
     22 C31         -0.8010    -2.8340    -0.9400 ca         1 CXU      -0.088000
     23 C32         -0.7800    -2.3640     0.3660 ca         1 CXU      -0.098000
     24 C33         -1.5170    -1.2420     0.6990 ca         1 CXU      -0.099000
     25 C51          4.9100    -0.1880    -1.3650 c3         1 CXU      -0.069100
     26 C52          3.9840    -2.4940    -1.3030 c3         1 CXU      -0.069100
     27 O81          4.2450    -3.2010     1.5670 o          1 CXU      -0.821800
     28 O82          2.3300    -2.2160     2.1310 o          1 CXU      -0.821800
     29 H2           1.4660     2.1250     1.5060 h1         1 CXU       0.108700
     30 HN2         -0.3570     0.9000    -0.4600 hn         1 CXU       0.337500
     31 H3           1.2640    -0.4050     1.1090 h2         1 CXU       0.137700
     32 H6           4.9850    -0.8470     1.0910 h1         1 CXU       0.061700
     33 HN7          3.7810     1.0290     0.9890 hn         1 CXU       0.325800
     34 H27         -4.6920     4.4110     1.1600 hc         1 CXU       0.068033
     35 H27A        -3.4930     4.0920     2.4190 hc         1 CXU       0.068033
     36 H27B        -2.9760     4.7330     0.8690 hc         1 CXU       0.068033
     37 H30         -1.5610    -2.5440    -2.9260 ha         1 CXU       0.141000
     38 H31         -0.2240    -3.7060    -1.2150 ha         1 CXU       0.143000
     39 H32         -0.1660    -2.8470     1.1120 ha         1 CXU       0.185000
     40 H33         -1.5030    -0.8700     1.7160 ha         1 CXU       0.148000
     41 H51          4.8640     0.8340    -0.9870 hc         1 CXU       0.035367
     42 H51A         5.9090    -0.5770    -1.1540 hc         1 CXU       0.035367
     43 H51B         4.7910    -0.1410    -2.4480 hc         1 CXU       0.035367
     44 H52          3.9390    -2.4610    -2.3930 hc         1 CXU       0.035367
     45 H52A         4.9420    -2.9290    -1.0200 hc         1 CXU       0.035367
     46 H52B         3.1930    -3.1560    -0.9560 hc         1 CXU       0.035367
     47 C27         -3.6810     4.0560     1.3460 c3         1 CXU      -0.136400
     48 H1           3.1360     2.5280    -0.4290 h4         1 CXU      -0.014800
@<TRIPOS>BOND
     1     1    20 1   
     2     2     3 2   
     3     2     4 1   
     4     2    48 1   
     5     4     5 1   
     6     4     6 1   
     7     4    29 1   
     8     5    12 1   
     9     5    30 1   
    10     6     7 1   
    11     6    10 1   
    12     6    31 1   
    13     7     8 1   
    14     8     9 1   
    15     8    25 1   
    16     8    26 1   
    17     9    10 1   
    18     9    11 1   
    19     9    32 1   
    20    10    33 1   
    21    11    27 1   
    22    11    28 1   
    23    12    13 2   
    24    12    14 1   
    25    14    15 2   
    26    14    18 1   
    27    15    16 1   
    28    15    47 1   
    29    16    17 1   
    30    17    18 2   
    31    18    19 1   
    32    19    20 ar  
    33    19    24 ar  
    34    20    21 ar  
    35    21    22 ar  
    36    21    37 1   
    37    22    23 ar  
    38    22    38 1   
    39    23    24 ar  
    40    23    39 1   
    41    24    40 1   
    42    25    41 1   
    43    25    42 1   
    44    25    43 1   
    45    26    44 1   
    46    26    45 1   
    47    26    46 1   
    48    34    47 1   
    49    35    47 1   
    50    36    47 1   
@<TRIPOS>SUBSTRUCTURE
     1 CXU         1 TEMP              0 ****  ****    0 ROOT
