@<TRIPOS>MOLECULE
CXU
   48    50     1     0     0
SMALL
No Charge or Current Charge


@<TRIPOS>ATOM
      1 Cl          -2.9390    -0.2650    -3.3090 cl         1 CXU      -0.210000
      2 C1           1.9410     2.9750     0.0530 c          1 CXU       0.577900
      3 O1           1.3240     3.6480    -0.7710 o          1 CXU      -0.518100
      4 C2           1.3400     1.7920     0.8440 c3         1 CXU      -0.010300
      5 N2          -0.0890     1.5890     0.4890 ns         1 CXU      -0.475900
      6 C3           2.1750     0.4980     0.6810 c5         1 CXU       0.360500
      7 S4           2.3190     0.0050    -1.0840 ss         1 CXU      -0.640000
      8 C5           3.7120    -1.1670    -0.6880 c5         1 CXU       0.136000
      9 C6           4.2280    -0.7110     0.7360 c5         1 CXU       0.023500
     10 N7           3.6010     0.6460     1.0000 n7         1 CXU      -0.800400
     11 C8           4.0290    -1.8490     1.8290 c          1 CXU       0.738000
     12 C21         -1.1560     2.1790     1.1220 c          1 CXU       0.659700
     13 O21         -0.9880     2.9800     2.0290 o          1 CXU      -0.626100
     14 C22         -2.4750     1.8280     0.5720 cc         1 CXU      -0.282600
     15 C23         -3.6200     2.5250     0.7880 cd         1 CXU       0.246300
     16 O24         -4.6320     1.9920     0.0430 os         1 CXU      -0.081700
     17 N25         -4.1200     0.8570    -0.6690 nd         1 CXU      -0.351300
     18 C26         -2.8380     0.7980    -0.3340 cc         1 CXU       0.363500
     19 C28         -2.0400    -0.3950    -0.6680 ca         1 CXU      -0.167500
     20 C29         -2.0810    -0.9990    -1.9510 ca         1 CXU       0.138000
     21 C30         -1.3560    -2.1760    -2.2080 ca         1 CXU      -0.114000
     22 C31         -0.6070    -2.7890    -1.1930 ca         1 CXU      -0.070000
     23 C32         -0.5880    -2.2260     0.0910 ca         1 CXU      -0.080000
     24 C33         -1.3040    -1.0460     0.3530 ca         1 CXU      -0.081000
     25 C51          4.7990    -0.9740    -1.7740 c3         1 CXU      -0.069100
     26 C52          3.1640    -2.6160    -0.7950 c3         1 CXU      -0.069100
     27 O81          4.9780    -2.5800     2.0820 o          1 CXU      -0.716500
     28 O82          2.9900    -1.9140     2.4750 o          1 CXU      -0.716500
     29 H2           1.4050     2.0740     1.9020 h1         1 CXU       0.108700
     30 HN2         -0.3030     0.9850    -0.2970 hn         1 CXU       0.337500
     31 H3           1.6980    -0.3060     1.2630 h2         1 CXU       0.137700
     32 H6           5.3170    -0.5730     0.6950 h1         1 CXU       0.061700
     33 HN7          3.9910     1.3030     0.3200 hn         1 CXU       0.381000
     34 H27         -4.9510     4.0650     1.5060 hc         1 CXU       0.068033
     35 H27A        -3.7160     3.5640     2.6720 hc         1 CXU       0.068033
     36 H27B        -3.2730     4.5900     1.2940 hc         1 CXU       0.068033
     37 H30         -1.3720    -2.6130    -3.2030 ha         1 CXU       0.123000
     38 H31         -0.0510    -3.7010    -1.3980 ha         1 CXU       0.125000
     39 H32         -0.0280    -2.7110     0.8890 ha         1 CXU       0.167000
     40 H33         -1.3090    -0.6570     1.3690 ha         1 CXU       0.130000
     41 H51          5.1730     0.0560    -1.7830 hc         1 CXU       0.035367
     42 H51A         5.6550    -1.6360    -1.5970 hc         1 CXU       0.035367
     43 H51B         4.4090    -1.1930    -2.7750 hc         1 CXU       0.035367
     44 H52          2.7870    -2.8230    -1.8040 hc         1 CXU       0.035367
     45 H52A         3.9440    -3.3560    -0.5780 hc         1 CXU       0.035367
     46 H52B         2.3330    -2.7870    -0.1020 hc         1 CXU       0.035367
     47 C27         -3.9060     3.7530     1.6090 c3         1 CXU      -0.136400
     48 H1           3.0020     3.2130     0.2880 h4         1 CXU      -0.014800
@<TRIPOS>BOND
     1     1    20 1   
     2     2     3 2   
     3     2     4 1   
     4     2    48 1   
     5     4     5 1   
     6     4     6 1   
     7     4    29 1   
     8     5    12 1   
     9     5    30 1   
    10     6     7 1   
    11     6    10 1   
    12     6    31 1   
    13     7     8 1   
    14     8     9 1   
    15     8    25 1   
    16     8    26 1   
    17     9    10 1   
    18     9    11 1   
    19     9    32 1   
    20    10    33 1   
    21    11    27 1   
    22    11    28 1   
    23    12    13 2   
    24    12    14 1   
    25    14    15 2   
    26    14    18 1   
    27    15    16 1   
    28    15    47 1   
    29    16    17 1   
    30    17    18 2   
    31    18    19 1   
    32    19    20 ar  
    33    19    24 ar  
    34    20    21 ar  
    35    21    22 ar  
    36    21    37 1   
    37    22    23 ar  
    38    22    38 1   
    39    23    24 ar  
    40    23    39 1   
    41    24    40 1   
    42    25    41 1   
    43    25    42 1   
    44    25    43 1   
    45    26    44 1   
    46    26    45 1   
    47    26    46 1   
    48    34    47 1   
    49    35    47 1   
    50    36    47 1   
@<TRIPOS>SUBSTRUCTURE
     1 CXU         1 TEMP              0 ****  ****    0 ROOT
