@<TRIPOS>MOLECULE
CXV
   48    50     1     0     0
SMALL
abcg2


@<TRIPOS>ATOM
      1 CL          -2.0000    -1.9080     2.6410 cl         1 CXV      -0.193000
      2 C1           1.5570     3.4610    -0.8290 c          1 CXV       0.572900
      3 O1           0.9790     4.1750    -0.0550 o          1 CXV      -0.522100
      4 C2           1.1350     2.0450    -1.1530 c3         1 CXV      -0.030300
      5 N2          -0.0320     1.6300    -0.4290 ns         1 CXV      -0.468900
      6 C3           2.3090     1.0930    -0.9350 c5         1 CXV       0.370500
      7 S4           2.8590     1.0910     0.8440 ss         1 CXV      -0.617000
      8 C5           2.9110    -0.7440     0.9300 c5         1 CXV       0.132000
      9 C6           2.8240    -1.1950    -0.5660 c5         1 CXV       0.028500
     10 N7           1.9810    -0.2550    -1.2850 n7         1 CXV      -0.808400
     11 C8           4.2090    -1.3620    -1.2230 c          1 CXV       0.735000
     12 C21         -1.2660     2.0300    -0.7980 c          1 CXV       0.645700
     13 O21         -1.4800     2.7390    -1.7670 o          1 CXV      -0.610100
     14 C22         -2.3720     1.5130     0.0370 cc         1 CXV      -0.280600
     15 C23         -3.3880     2.2480     0.5610 cd         1 CXV       0.236300
     16 O24         -4.2090     1.4330     1.2170 os         1 CXV      -0.076700
     17 N25         -3.7820     0.1460     1.1220 nd         1 CXV      -0.350300
     18 C26         -2.6810     0.1780     0.4290 cc         1 CXV       0.359500
     19 C28         -1.9740    -1.0550     0.0540 ca         1 CXV      -0.144500
     20 C29         -1.6610    -2.0740     0.9540 ca         1 CXV       0.147000
     21 C30         -1.0100    -3.2250     0.5360 ca         1 CXV      -0.113000
     22 C31         -0.6530    -3.3720    -0.7940 ca         1 CXV      -0.079000
     23 C32         -0.9460    -2.3680    -1.7070 ca         1 CXV      -0.103000
     24 C33         -1.6050    -1.2270    -1.2820 ca         1 CXV      -0.076000
     25 C51          1.6890    -1.2380     1.6970 c3         1 CXV      -0.072600
     26 C52          4.1790    -1.1920     1.6450 c3         1 CXV      -0.072600
     27 O81          4.7000    -2.5060    -1.1630 o          1 CXV      -0.716000
     28 O82          4.7240    -0.3550    -1.7450 o          1 CXV      -0.716000
     29 H2           0.9180     2.0280    -2.2280 h1         1 CXV       0.102700
     30 HN2          0.1110     1.3050     0.5190 hn         1 CXV       0.340500
     31 H3           3.1550     1.4440    -1.5220 h2         1 CXV       0.133700
     32 H6           2.3210    -2.1660    -0.5830 h1         1 CXV       0.057700
     33 HN7          1.0110    -0.4400    -1.0530 hn         1 CXV       0.391000
     34 H27         -4.5310     3.8910    -0.1500 hc         1 CXV       0.068700
     35 H27A        -4.0030     4.0430     1.5260 hc         1 CXV       0.068700
     36 H27B        -2.8470     4.2660     0.2070 hc         1 CXV       0.068700
     37 H30         -0.7710    -3.9980     1.2540 ha         1 CXV       0.129000
     38 H31         -0.1420    -4.2700    -1.1140 ha         1 CXV       0.126000
     39 H32         -0.6700    -2.4740    -2.7470 ha         1 CXV       0.131000
     40 H33         -1.8560    -0.4600    -2.0050 ha         1 CXV       0.129000
     41 H51          0.7590    -0.9140     1.2310 hc         1 CXV       0.036200
     42 H51A         1.6760    -2.3300     1.7350 hc         1 CXV       0.036200
     43 H51B         1.6880    -0.8680     2.7230 hc         1 CXV       0.036200
     44 H52          4.1550    -0.8880     2.6920 hc         1 CXV       0.036200
     45 H52A         4.2610    -2.2790     1.6180 hc         1 CXV       0.036200
     46 H52B         5.0740    -0.7690     1.1920 hc         1 CXV       0.036200
     47 C27         -3.7080     3.6910     0.5380 c3         1 CXV      -0.140400
     48 H1           2.4540     3.7980    -1.3780 h4         1 CXV      -0.000800
@<TRIPOS>BOND
     1     1    20 1   
     2     2     3 2   
     3     2     4 1   
     4     2    48 1   
     5     4     5 1   
     6     4     6 1   
     7     4    29 1   
     8     5    12 1   
     9     5    30 1   
    10     6     7 1   
    11     6    10 1   
    12     6    31 1   
    13     7     8 1   
    14     8     9 1   
    15     8    25 1   
    16     8    26 1   
    17     9    10 1   
    18     9    11 1   
    19     9    32 1   
    20    10    33 1   
    21    11    27 1   
    22    11    28 1   
    23    12    13 2   
    24    12    14 1   
    25    14    15 2   
    26    14    18 1   
    27    15    16 1   
    28    15    47 1   
    29    16    17 1   
    30    17    18 2   
    31    18    19 1   
    32    19    20 ar  
    33    19    24 ar  
    34    20    21 ar  
    35    21    22 ar  
    36    21    37 1   
    37    22    23 ar  
    38    22    38 1   
    39    23    24 ar  
    40    23    39 1   
    41    24    40 1   
    42    25    41 1   
    43    25    42 1   
    44    25    43 1   
    45    26    44 1   
    46    26    45 1   
    47    26    46 1   
    48    34    47 1   
    49    35    47 1   
    50    36    47 1   
@<TRIPOS>SUBSTRUCTURE
     1 CXV         1 TEMP              0 ****  ****    0 ROOT
