@<TRIPOS>MOLECULE
CXV
   48    50     1     0     0
SMALL
No Charge or Current Charge


@<TRIPOS>ATOM
      1 Cl          -2.8080    -1.3100     3.0380 cl         1 CXV      -0.193000
      2 C1           1.6000     3.2610     0.0570 c          1 CXV       0.572900
      3 O1           0.9770     3.8120     0.9610 o          1 CXV      -0.522100
      4 C2           1.1200     2.0080    -0.7080 c3         1 CXV      -0.030300
      5 N2          -0.2710     1.6320    -0.3270 ns         1 CXV      -0.468900
      6 C3           2.1660     0.8820    -0.5300 c5         1 CXV       0.370500
      7 S4           2.0690     0.1520     1.1530 ss         1 CXV      -0.617000
      8 C5           3.1650    -1.2470     0.6150 c5         1 CXV       0.132000
      9 C6           2.9070    -1.3480    -0.9440 c5         1 CXV       0.028500
     10 N7           1.8300    -0.3300    -1.2800 n7         1 CXV      -0.808400
     11 C8           4.2680    -1.2640    -1.7590 c          1 CXV       0.735000
     12 C21         -1.3990     2.3130    -0.7190 c          1 CXV       0.645700
     13 O21         -1.3270     3.2970    -1.4400 o          1 CXV      -0.610100
     14 C22         -2.6570     1.8170    -0.1380 cc         1 CXV      -0.280600
     15 C23         -3.8040     2.5370    -0.0410 cd         1 CXV       0.236300
     16 O24         -4.7390     1.8210     0.6510 os         1 CXV      -0.076700
     17 N25         -4.1760     0.5450     0.9810 nd         1 CXV      -0.350300
     18 C26         -2.9400     0.5830     0.5010 cc         1 CXV       0.359500
     19 C28         -2.1460    -0.6560     0.4020 ca         1 CXV      -0.144500
     20 C29         -2.1080    -1.6170     1.4460 ca         1 CXV       0.147000
     21 C30         -1.4340    -2.8380     1.2670 ca         1 CXV      -0.113000
     22 C31         -0.8150    -3.1380     0.0440 ca         1 CXV      -0.079000
     23 C32         -0.8630    -2.2090    -1.0030 ca         1 CXV      -0.103000
     24 C33         -1.5260    -0.9840    -0.8280 ca         1 CXV      -0.076000
     25 C51          2.7130    -2.5230     1.3650 c3         1 CXV      -0.072600
     26 C52          4.6130    -0.9030     1.0600 c3         1 CXV      -0.072600
     27 O81          4.8200    -2.3090    -2.0790 o          1 CXV      -0.716000
     28 O82          4.6900    -0.1790    -2.1460 o          1 CXV      -0.716000
     29 H2           1.1270     2.2840    -1.7700 h1         1 CXV       0.102700
     30 HN2         -0.3960     0.8780     0.3390 hn         1 CXV       0.340500
     31 H3           3.1800     1.2530    -0.7540 h2         1 CXV       0.133700
     32 H6           2.5060    -2.3430    -1.1820 h1         1 CXV       0.057700
     33 HN7          0.9480    -0.6580    -0.8810 hn         1 CXV       0.391000
     34 H27         -4.0950     4.0270    -1.5680 hc         1 CXV       0.068700
     35 H27A        -5.1670     4.2060    -0.1690 hc         1 CXV       0.068700
     36 H27B        -3.4600     4.6630    -0.0380 hc         1 CXV       0.068700
     37 H30         -1.3920    -3.5550     2.0820 ha         1 CXV       0.129000
     38 H31         -0.3030    -4.0890    -0.0910 ha         1 CXV       0.126000
     39 H32         -0.4010    -2.4460    -1.9600 ha         1 CXV       0.131000
     40 H33         -1.5960    -0.3080    -1.6790 ha         1 CXV       0.129000
     41 H51          1.6650    -2.7560     1.1550 hc         1 CXV       0.036200
     42 H51A         3.3140    -3.3900     1.0660 hc         1 CXV       0.036200
     43 H51B         2.8110    -2.4060     2.4510 hc         1 CXV       0.036200
     44 H52          4.6740    -0.7870     2.1490 hc         1 CXV       0.036200
     45 H52A         5.3190    -1.6920     0.7770 hc         1 CXV       0.036200
     46 H52B         4.9600     0.0380     0.6190 hc         1 CXV       0.036200
     47 C27         -4.1510     3.9340    -0.4780 c3         1 CXV      -0.140400
     48 H1           2.5850     3.6590    -0.2740 h4         1 CXV      -0.000800
@<TRIPOS>BOND
     1     1    20 1   
     2     2     3 2   
     3     2     4 1   
     4     2    48 1   
     5     4     5 1   
     6     4     6 1   
     7     4    29 1   
     8     5    12 1   
     9     5    30 1   
    10     6     7 1   
    11     6    10 1   
    12     6    31 1   
    13     7     8 1   
    14     8     9 1   
    15     8    25 1   
    16     8    26 1   
    17     9    10 1   
    18     9    11 1   
    19     9    32 1   
    20    10    33 1   
    21    11    27 1   
    22    11    28 1   
    23    12    13 2   
    24    12    14 1   
    25    14    15 2   
    26    14    18 1   
    27    15    16 1   
    28    15    47 1   
    29    16    17 1   
    30    17    18 2   
    31    18    19 1   
    32    19    20 ar  
    33    19    24 ar  
    34    20    21 ar  
    35    21    22 ar  
    36    21    37 1   
    37    22    23 ar  
    38    22    38 1   
    39    23    24 ar  
    40    23    39 1   
    41    24    40 1   
    42    25    41 1   
    43    25    42 1   
    44    25    43 1   
    45    26    44 1   
    46    26    45 1   
    47    26    46 1   
    48    34    47 1   
    49    35    47 1   
    50    36    47 1   
@<TRIPOS>SUBSTRUCTURE
     1 CXV         1 TEMP              0 ****  ****    0 ROOT
