@<TRIPOS>MOLECULE
CXW
   54    56     1     0     0
SMALL
abcg2


@<TRIPOS>ATOM
      1 O22         -3.9790     0.1700     1.2540 oh         1 CXW      -0.573100
      2 C22         -4.2790    -0.6390     0.2240 ca         1 CXW       0.175100
      3 C23         -4.7890    -1.9100     0.4860 ca         1 CXW      -0.164000
      4 C24         -5.1130    -2.7630    -0.5590 ca         1 CXW      -0.068000
      5 C25         -4.9180    -2.3700    -1.8760 ca         1 CXW      -0.159000
      6 C26         -4.4060    -1.1050    -2.1340 ca         1 CXW      -0.063000
      7 C21         -4.0940    -0.2240    -1.1060 ca         1 CXW      -0.200300
      8 C13         -3.6160     1.1740    -1.4000 c3         1 CXW       0.206100
      9 N12         -2.5630     1.5730    -0.4720 n7         1 CXW      -0.890400
     10 C11         -2.1870     2.9740    -0.5860 c3         1 CXW       0.159800
     11 C10         -1.0790     3.3130     0.3860 c3         1 CXW       0.156600
     12 O09          0.0490     2.5380     0.0590 os         1 CXW      -0.462000
     13 C4           1.0600     2.5100     1.0420 c5         1 CXW       0.148300
     14 C5           1.9650     3.7600     0.9830 c5         1 CXW       0.112800
     15 N1           3.2080     3.3780     0.2980 n7         1 CXW      -0.834400
     16 C2           2.9990     2.0390    -0.2430 c5         1 CXW       0.146800
     17 C3           2.0210     1.3650     0.7200 c5         1 CXW      -0.087700
     18 C08          1.3570     0.0810     0.2260 c3         1 CXW      -0.108700
     19 C06          2.3320    -1.0620     0.1860 ca         1 CXW       0.394300
     20 C05          2.4230    -1.9490     1.2460 ca         1 CXW      -0.217000
     21 C04          3.3670    -2.9790     1.1940 ca         1 CXW       0.001700
     22 C07          3.5070    -3.9450     2.3300 c3         1 CXW      -0.053800
     23 N01          3.1110    -1.1490    -0.8940 nb         1 CXW      -0.751000
     24 C02          4.0150    -2.1220    -0.9530 ca         1 CXW       0.598900
     25 N02          4.8280    -2.1480    -2.0510 nv         1 CXW      -1.055900
     26 C03          4.1730    -3.0650     0.0760 ca         1 CXW      -0.232000
     27 H1          -3.3880     0.8850     0.8840 ho         1 CXW       0.512000
     28 H2          -4.9300    -2.2220     1.5140 ha         1 CXW       0.125000
     29 H3          -5.5110    -3.7450    -0.3370 ha         1 CXW       0.110000
     30 H4          -5.1600    -3.0380    -2.6920 ha         1 CXW       0.113000
     31 H5          -4.2510    -0.7850    -3.1580 ha         1 CXW       0.106000
     32 H6          -3.3040     1.2540    -2.4480 h1         1 CXW       0.042700
     33 H7          -4.4460     1.8770    -1.2730 h1         1 CXW       0.042700
     34 H8          -1.7430     1.0000    -0.6340 hn         1 CXW       0.438000
     35 H10         -1.8810     3.2330    -1.6090 h1         1 CXW       0.045700
     36 H11         -3.0560     3.5910    -0.3470 h1         1 CXW       0.045700
     37 H12         -0.8660     4.3880     0.3280 h1         1 CXW       0.033200
     38 H13         -1.4120     3.1010     1.4110 h1         1 CXW       0.033200
     39 H14          0.6040     2.3860     2.0330 h1         1 CXW       0.043700
     40 H15          1.4520     4.5640     0.4450 h1         1 CXW       0.050700
     41 H16          2.1830     4.1390     1.9820 h1         1 CXW       0.050700
     42 H17          3.9510     3.3290     0.9810 hn         1 CXW       0.397000
     43 H19          2.5580     2.0960    -1.2450 h1         1 CXW       0.068200
     44 H20          3.9470     1.5130    -0.3410 h1         1 CXW       0.068200
     45 H21          2.5630     1.1390     1.6470 hc         1 CXW       0.050700
     46 H22          0.5260    -0.1790     0.8880 hc         1 CXW       0.063200
     47 H23          0.9410     0.2330    -0.7720 hc         1 CXW       0.063200
     48 H24          1.7630    -1.8490     2.0990 ha         1 CXW       0.122000
     49 H25          4.0160    -3.4720     3.1720 hc         1 CXW       0.046367
     50 H26          2.5320    -4.2750     2.6910 hc         1 CXW       0.046367
     51 H27          4.0840    -4.8230     2.0460 hc         1 CXW       0.046367
     52 H28          4.5030    -1.6350    -2.8540 hn         1 CXW       0.468500
     53 H29          5.2810    -3.0180    -2.2740 hn         1 CXW       0.468500
     54 H30          4.9190    -3.8460    -0.0140 ha         1 CXW       0.119000
@<TRIPOS>BOND
     1     1     2 1   
     2     1    27 1   
     3     2     3 ar  
     4     2     7 ar  
     5     3     4 ar  
     6     3    28 1   
     7     4     5 ar  
     8     4    29 1   
     9     5     6 ar  
    10     5    30 1   
    11     6     7 ar  
    12     6    31 1   
    13     7     8 1   
    14     8     9 1   
    15     8    32 1   
    16     8    33 1   
    17     9    10 1   
    18     9    34 1   
    19    10    11 1   
    20    10    35 1   
    21    10    36 1   
    22    11    12 1   
    23    11    37 1   
    24    11    38 1   
    25    12    13 1   
    26    13    14 1   
    27    13    17 1   
    28    13    39 1   
    29    14    15 1   
    30    14    40 1   
    31    14    41 1   
    32    15    16 1   
    33    15    42 1   
    34    16    17 1   
    35    16    43 1   
    36    16    44 1   
    37    17    18 1   
    38    17    45 1   
    39    18    19 1   
    40    18    46 1   
    41    18    47 1   
    42    19    20 ar  
    43    19    23 ar  
    44    20    21 ar  
    45    20    48 1   
    46    21    22 1   
    47    21    26 ar  
    48    22    49 1   
    49    22    50 1   
    50    22    51 1   
    51    23    24 ar  
    52    24    25 1   
    53    24    26 ar  
    54    25    52 1   
    55    25    53 1   
    56    26    54 1   
@<TRIPOS>SUBSTRUCTURE
     1 CXW         1 TEMP              0 ****  ****    0 ROOT
