@<TRIPOS>MOLECULE
CXW
   54    56     1     0     0
SMALL
No Charge or Current Charge


@<TRIPOS>ATOM
      1 O22         -4.4560     0.3160     1.0020 oh         1 CXW      -0.573100
      2 C22         -4.5580    -0.5430    -0.0410 ca         1 CXW       0.175100
      3 C23         -5.0910    -1.8270     0.1510 ca         1 CXW      -0.164000
      4 C24         -5.1640    -2.7230    -0.9280 ca         1 CXW      -0.068000
      5 C25         -4.7020    -2.3280    -2.1940 ca         1 CXW      -0.159000
      6 C26         -4.1720    -1.0400    -2.3860 ca         1 CXW      -0.063000
      7 C21         -4.0930    -0.1350    -1.3070 ca         1 CXW      -0.200300
      8 C13         -3.5630     1.2790    -1.5420 c3         1 CXW       0.206100
      9 N12         -2.7010     1.7110    -0.4260 n7         1 CXW      -0.890400
     10 C11         -2.2250     3.1120    -0.5050 c3         1 CXW       0.159800
     11 C10         -1.1330     3.3880     0.5580 c3         1 CXW       0.156600
     12 O09         -0.0590     2.4410     0.3590 os         1 CXW      -0.462000
     13 C4           1.0510     2.4840     1.2950 c5         1 CXW       0.148300
     14 C5           1.9350     3.7520     0.9970 c5         1 CXW       0.112800
     15 N1           3.2260     3.2530     0.4370 n7         1 CXW      -0.834400
     16 C2           2.8700     1.9420    -0.1540 c5         1 CXW       0.146800
     17 C3           2.0170     1.3030     0.9700 c5         1 CXW      -0.087700
     18 C08          1.3530    -0.0550     0.6100 c3         1 CXW      -0.108700
     19 C06          2.3530    -1.1850     0.4050 ca         1 CXW       0.394300
     20 C05          2.9300    -1.8400     1.5090 ca         1 CXW      -0.217000
     21 C04          3.8570    -2.8730     1.2940 ca         1 CXW       0.001700
     22 C07          4.5070    -3.6050     2.4570 c3         1 CXW      -0.053800
     23 N01          2.6560    -1.5050    -0.8740 nb         1 CXW      -0.751000
     24 C02          3.5360    -2.4780    -1.0550 ca         1 CXW       0.598900
     25 N02          3.7450    -2.7030    -2.3530 nv         1 CXW      -1.055900
     26 C03          4.1640    -3.1960    -0.0360 ca         1 CXW      -0.232000
     27 H1          -3.8380     1.0210     0.6490 ho         1 CXW       0.512000
     28 H2          -5.4410    -2.1280     1.1350 ha         1 CXW       0.125000
     29 H3          -5.5750    -3.7210    -0.7830 ha         1 CXW       0.110000
     30 H4          -4.7590    -3.0200    -3.0320 ha         1 CXW       0.113000
     31 H5          -3.8280    -0.7440    -3.3750 ha         1 CXW       0.106000
     32 H6          -3.0060     1.3130    -2.4890 h1         1 CXW       0.042700
     33 H7          -4.4230     1.9560    -1.6430 h1         1 CXW       0.042700
     34 H8          -1.8480     1.1300    -0.4530 hn         1 CXW       0.438000
     35 H10         -1.7950     3.3170    -1.4960 h1         1 CXW       0.045700
     36 H11         -3.0580     3.8130    -0.3560 h1         1 CXW       0.045700
     37 H12         -0.7790     4.4210     0.4510 h1         1 CXW       0.033200
     38 H13         -1.5660     3.2750     1.5600 h1         1 CXW       0.033200
     39 H14          0.6700     2.4470     2.3250 h1         1 CXW       0.043700
     40 H15          1.4440     4.4100     0.2670 h1         1 CXW       0.050700
     41 H16          2.1070     4.3470     1.9050 h1         1 CXW       0.050700
     42 H17          3.8680     3.0750     1.2190 hn         1 CXW       0.397000
     43 H19          2.2860     2.0660    -1.0790 h1         1 CXW       0.068200
     44 H20          3.7610     1.3440    -0.3940 h1         1 CXW       0.068200
     45 H21          2.6490     1.1080     1.8460 hc         1 CXW       0.050700
     46 H22          0.6590    -0.3390     1.4100 hc         1 CXW       0.063200
     47 H23          0.7340     0.0560    -0.2880 hc         1 CXW       0.063200
     48 H24          2.6590    -1.5440     2.5180 ha         1 CXW       0.122000
     49 H25          5.4150    -3.0870     2.7850 hc         1 CXW       0.046367
     50 H26          3.8280    -3.6700     3.3150 hc         1 CXW       0.046367
     51 H27          4.7860    -4.6280     2.1780 hc         1 CXW       0.046367
     52 H28          3.0590    -2.2840    -2.9690 hn         1 CXW       0.468500
     53 H29          4.1000    -3.6140    -2.6220 hn         1 CXW       0.468500
     54 H30          4.8760    -3.9810    -0.2720 ha         1 CXW       0.119000
@<TRIPOS>BOND
     1     1     2 1   
     2     1    27 1   
     3     2     3 ar  
     4     2     7 ar  
     5     3     4 ar  
     6     3    28 1   
     7     4     5 ar  
     8     4    29 1   
     9     5     6 ar  
    10     5    30 1   
    11     6     7 ar  
    12     6    31 1   
    13     7     8 1   
    14     8     9 1   
    15     8    32 1   
    16     8    33 1   
    17     9    10 1   
    18     9    34 1   
    19    10    11 1   
    20    10    35 1   
    21    10    36 1   
    22    11    12 1   
    23    11    37 1   
    24    11    38 1   
    25    12    13 1   
    26    13    14 1   
    27    13    17 1   
    28    13    39 1   
    29    14    15 1   
    30    14    40 1   
    31    14    41 1   
    32    15    16 1   
    33    15    42 1   
    34    16    17 1   
    35    16    43 1   
    36    16    44 1   
    37    17    18 1   
    38    17    45 1   
    39    18    19 1   
    40    18    46 1   
    41    18    47 1   
    42    19    20 ar  
    43    19    23 ar  
    44    20    21 ar  
    45    20    48 1   
    46    21    22 1   
    47    21    26 ar  
    48    22    49 1   
    49    22    50 1   
    50    22    51 1   
    51    23    24 ar  
    52    24    25 1   
    53    24    26 ar  
    54    25    52 1   
    55    25    53 1   
    56    26    54 1   
@<TRIPOS>SUBSTRUCTURE
     1 CXW         1 TEMP              0 ****  ****    0 ROOT
