@<TRIPOS>MOLECULE
CXX
   45    47     1     0     0
SMALL
No Charge or Current Charge


@<TRIPOS>ATOM
      1 C1           2.3080    -0.7000    -0.6080 ca         1 CXX      -0.160000
      2 C2           3.6720    -0.8180    -0.3220 ca         1 CXX       0.141000
      3 C3           4.2330    -0.0940     0.7330 ca         1 CXX      -0.124000
      4 C4           3.4220     0.7510     1.5030 ca         1 CXX      -0.091000
      5 C5           1.2810     1.8310     2.1790 c3         1 CXX      -0.019100
      6 C6          -0.2550     1.7820     2.1560 c3         1 CXX      -0.021100
      7 C8          -2.0080     3.8600    -0.5450 ca         1 CXX      -0.118000
      8 C9          -1.8050     3.0610    -1.6810 ca         1 CXX      -0.100000
      9 C10         -1.0970     1.8520    -1.5670 ca         1 CXX      -0.135000
     10 C11         -0.5840     1.4370    -0.3240 ca         1 CXX       0.279000
     11 C13          2.0410     0.8820     1.2370 ca         1 CXX      -0.090300
     12 C14          1.4690     0.1400     0.1550 ca         1 CXX       0.324000
     13 C17         -2.7450    -2.4730    -0.3440 c3         1 CXX       0.167800
     14 C18         -5.1000    -1.6830    -0.1790 c3         1 CXX       0.150600
     15 C7          -1.5050     3.4490     0.7010 ca         1 CXX      -0.097000
     16 C12         -0.7950     2.2370     0.8140 ca         1 CXX      -0.079300
     17 C16         -2.0730    -1.1200    -0.0260 c3         1 CXX      -0.090400
     18 C19         -4.5650    -4.0580     0.1220 c3         1 CXX       0.150600
     19 N1           0.1000     0.2050    -0.2240 nh         1 CXX      -0.849200
     20 N2          -4.0840    -2.6660     0.2700 n3         1 CXX      -0.713600
     21 Cl2          4.6850    -1.8730    -1.2990 cl         1 CXX      -0.210000
     22 H1           1.9040    -1.2580    -1.4460 ha         1 CXX       0.128000
     23 H3           5.2940    -0.1840     0.9520 ha         1 CXX       0.131000
     24 H4           3.8720     1.3090     2.3210 ha         1 CXX       0.113000
     25 H51          1.5920     2.8630     1.9710 hc         1 CXX       0.047700
     26 H61         -0.5930     0.7640     2.3860 hc         1 CXX       0.055200
     27 H8          -2.5560     4.7960    -0.6290 ha         1 CXX       0.114000
     28 H9          -2.1950     3.3760    -2.6460 ha         1 CXX       0.113000
     29 H10         -0.9420     1.2350    -2.4470 ha         1 CXX       0.116000
     30 H171        -2.8160    -2.5810    -1.4350 h1         1 CXX       0.027700
     31 H172        -2.0730    -3.2660     0.0120 h1         1 CXX       0.027700
     32 H181        -5.2390    -1.7320    -1.2670 h1         1 CXX       0.030533
     33 H182        -6.0680    -1.8820     0.2990 h1         1 CXX       0.030533
     34 H183        -4.8080    -0.6590     0.0880 h1         1 CXX       0.030533
     35 H7          -1.6690     4.0740     1.5770 ha         1 CXX       0.113000
     36 H151        -0.0820    -1.9030    -0.1380 h1         1 CXX       0.037700
     37 H152        -0.6410    -1.1790    -1.6510 h1         1 CXX       0.037700
     38 H161        -2.6610    -0.3080    -0.4660 hc         1 CXX       0.059700
     39 H162        -2.0620    -0.9700     1.0590 hc         1 CXX       0.059700
     40 H191        -3.8380    -4.7680     0.5390 h1         1 CXX       0.030533
     41 H192        -5.5150    -4.2000     0.6550 h1         1 CXX       0.030533
     42 H193        -4.7230    -4.3090    -0.9360 h1         1 CXX       0.030533
     43 H52          1.5960     1.6310     3.2110 hc         1 CXX       0.047700
     44 H62         -0.6400     2.4190     2.9610 hc         1 CXX       0.055200
     45 C15         -0.6260    -1.0460    -0.5600 c3         1 CXX       0.218800
@<TRIPOS>BOND
     1     1     2 ar  
     2     1    12 ar  
     3     1    22 1   
     4     2     3 ar  
     5     2    21 1   
     6     3     4 ar  
     7     3    23 1   
     8     4    11 ar  
     9     4    24 1   
    10     5     6 1   
    11     5    11 1   
    12     5    25 1   
    13     5    43 1   
    14     6    16 1   
    15     6    26 1   
    16     6    44 1   
    17     7     8 ar  
    18     7    15 ar  
    19     7    27 1   
    20     8     9 ar  
    21     8    28 1   
    22     9    10 ar  
    23     9    29 1   
    24    10    16 ar  
    25    10    19 1   
    26    11    12 ar  
    27    12    19 1   
    28    13    17 1   
    29    13    20 1   
    30    13    30 1   
    31    13    31 1   
    32    14    20 1   
    33    14    32 1   
    34    14    33 1   
    35    14    34 1   
    36    15    16 ar  
    37    15    35 1   
    38    17    38 1   
    39    17    39 1   
    40    17    45 1   
    41    18    20 1   
    42    18    40 1   
    43    18    41 1   
    44    18    42 1   
    45    19    45 1   
    46    36    45 1   
    47    37    45 1   
@<TRIPOS>SUBSTRUCTURE
     1 CXX         1 TEMP              0 ****  ****    0 ROOT
