@<TRIPOS>MOLECULE
CXX
   45    47     1     0     0
SMALL
bcc


@<TRIPOS>ATOM
      1 C1           2.1310    -0.7740    -0.4210 ca         1 CXX      -0.178000
      2 C2           3.5030    -0.8340    -0.2700 ca         1 CXX       0.049400
      3 C3           4.1630    -0.0000     0.6140 ca         1 CXX      -0.142000
      4 C4           3.3970     0.8880     1.3490 ca         1 CXX      -0.109000
      5 C5           1.3440     1.9710     2.1700 c3         1 CXX      -0.019100
      6 C6          -0.1800     2.0000     2.2060 c3         1 CXX      -0.021100
      7 C8          -1.8570     3.7990    -0.6960 ca         1 CXX      -0.136000
      8 C9          -1.7670     2.8310    -1.6870 ca         1 CXX      -0.118000
      9 C10         -1.1570     1.6140    -1.4140 ca         1 CXX      -0.153000
     10 C11         -0.6460     1.3560    -0.1450 ca         1 CXX       0.140600
     11 C13          2.0100     0.9710     1.2500 ca         1 CXX      -0.090300
     12 C14          1.3620     0.1170     0.3390 ca         1 CXX       0.185600
     13 C17         -2.7800    -2.4290    -0.4790 c3         1 CXX       0.167800
     14 C18         -5.0350    -1.7750     0.0850 c3         1 CXX       0.150600
     15 C7          -1.3440     3.5400     0.5670 ca         1 CXX      -0.115000
     16 C12         -0.7490     2.3170     0.8610 ca         1 CXX      -0.079300
     17 C16         -2.1180    -1.2050     0.1430 c3         1 CXX      -0.090400
     18 C19         -4.5190    -4.0560    -0.3690 c3         1 CXX       0.150600
     19 N1          -0.0330     0.1180     0.1680 nh         1 CXX      -0.572400
     20 N2          -4.0240    -2.8060     0.1650 n3         1 CXX      -0.713600
     21 CL2          4.4100    -1.9620    -1.2290 cl         1 CXX      -0.118400
     22 H1           1.6570    -1.4170    -1.1510 ha         1 CXX       0.146000
     23 H3           5.2360    -0.0440     0.7370 ha         1 CXX       0.149000
     24 H4           3.9010     1.5390     2.0540 ha         1 CXX       0.131000
     25 H51          1.6990     2.9710     1.9050 hc         1 CXX       0.047700
     26 H61         -0.5650     1.0400     2.5580 hc         1 CXX       0.055200
     27 H8          -2.3290     4.7510    -0.9060 ha         1 CXX       0.132000
     28 H9          -2.1640     3.0220    -2.6750 ha         1 CXX       0.131000
     29 H10         -1.0820     0.8670    -2.1950 ha         1 CXX       0.134000
     30 H171        -2.9180    -2.2490    -1.5600 h1         1 CXX       0.027700
     31 H172        -2.0960    -3.2800    -0.3970 h1         1 CXX       0.027700
     32 H181        -5.2930    -1.4980    -0.9500 h1         1 CXX       0.030533
     33 H182        -5.9480    -2.1180     0.5730 h1         1 CXX       0.030533
     34 H183        -4.7140    -0.8710     0.6020 h1         1 CXX       0.030533
     35 H7          -1.4210     4.2910     1.3440 ha         1 CXX       0.131000
     36 H151        -0.1190    -1.9410     0.0600 h1         1 CXX       0.037700
     37 H152        -0.6310    -1.1690    -1.4260 h1         1 CXX       0.037700
     38 H161        -2.6730    -0.3020    -0.1170 hc         1 CXX       0.059700
     39 H162        -2.1340    -1.2910     1.2320 hc         1 CXX       0.059700
     40 H191        -3.7670    -4.8380    -0.2550 h1         1 CXX       0.030533
     41 H192        -5.4100    -4.3690     0.1770 h1         1 CXX       0.030533
     42 H193        -4.7860    -4.0010    -1.4370 h1         1 CXX       0.030533
     43 H52          1.7130     1.7870     3.1830 hc         1 CXX       0.047700
     44 H62         -0.4880     2.7530     2.9320 hc         1 CXX       0.055200
     45 C15         -0.6750    -1.0880    -0.3310 c3         1 CXX       0.218800
@<TRIPOS>BOND
     1     1     2 ar  
     2     1    12 ar  
     3     1    22 1   
     4     2     3 ar  
     5     2    21 1   
     6     3     4 ar  
     7     3    23 1   
     8     4    11 ar  
     9     4    24 1   
    10     5     6 1   
    11     5    11 1   
    12     5    25 1   
    13     5    43 1   
    14     6    16 1   
    15     6    26 1   
    16     6    44 1   
    17     7     8 ar  
    18     7    15 ar  
    19     7    27 1   
    20     8     9 ar  
    21     8    28 1   
    22     9    10 ar  
    23     9    29 1   
    24    10    16 ar  
    25    10    19 1   
    26    11    12 ar  
    27    12    19 1   
    28    13    17 1   
    29    13    20 1   
    30    13    30 1   
    31    13    31 1   
    32    14    20 1   
    33    14    32 1   
    34    14    33 1   
    35    14    34 1   
    36    15    16 ar  
    37    15    35 1   
    38    17    38 1   
    39    17    39 1   
    40    17    45 1   
    41    18    20 1   
    42    18    40 1   
    43    18    41 1   
    44    18    42 1   
    45    19    45 1   
    46    36    45 1   
    47    37    45 1   
@<TRIPOS>SUBSTRUCTURE
     1 CXX         1 TEMP              0 ****  ****    0 ROOT
