@<TRIPOS>MOLECULE
CXY
   55    57     1     0     0
SMALL
abcg2


@<TRIPOS>ATOM
      1 O1B          3.5710    -1.3500    -2.6130 o          1 CXY      -0.844000
      2 PB           2.8470    -0.4020    -1.7120 p5         1 CXY       1.461800
      3 O2B          2.3550     0.9230    -2.1970 o          1 CXY      -0.844000
      4 O1           3.7390    -0.1610    -0.3350 os         1 CXY      -0.576400
      5 O3A          1.6320    -1.1820    -0.9200 os         1 CXY      -0.688800
      6 PA           0.5020    -2.0870    -1.6920 p5         1 CXY       1.453800
      7 O1A          0.7630    -3.5350    -1.4230 o          1 CXY      -0.851500
      8 O2A          0.2940    -1.6030    -3.0920 o          1 CXY      -0.851500
      9 O5D         -0.7430    -1.5770    -0.7390 os         1 CXY      -0.564400
     10 C5D         -2.0420    -1.9640    -1.1350 c3         1 CXY       0.231600
     11 C4D         -2.9500    -2.0210     0.0680 c5         1 CXY       0.166300
     12 O4D         -3.0750    -0.7340     0.6430 os         1 CXY      -0.398000
     13 C3D         -4.3700    -2.4510    -0.2970 c5         1 CXY       0.088300
     14 O3D         -4.4760    -3.8530    -0.2350 oh         1 CXY      -0.710000
     15 C2D         -5.2280    -1.7420     0.7670 c5         1 CXY       0.100300
     16 O2D         -5.4170    -2.5760     1.8830 oh         1 CXY      -0.738000
     17 C1D         -4.3440    -0.5620     1.2100 c5         1 CXY       0.322700
     18 N1          -4.8340     0.7700     0.8980 n          1 CXY      -0.306000
     19 C6          -4.9590     1.6740     1.9000 cc         1 CXY       0.046600
     20 C5          -5.3640     2.9380     1.6720 cd         1 CXY      -0.512600
     21 C4          -5.6320     3.2800     0.3110 cd         1 CXY       0.783500
     22 N3          -5.5030     2.4070    -0.6700 nc         1 CXY      -0.774100
     23 C2          -5.1130     1.1400    -0.4290 c          1 CXY       0.719400
     24 N4          -6.0250     4.5160     0.0080 nv         1 CXY      -1.049200
     25 O2          -5.0000     0.3060    -1.3160 o          1 CXY      -0.534000
     26 C1           5.1300    -0.1720    -0.4200 c6         1 CXY       0.407300
     27 C9           5.7060    -0.0150     0.9940 c6         1 CXY       0.158300
     28 C3           5.4220     1.3760     1.5380 c6         1 CXY       0.174300
     29 C8           5.9290     2.4080     0.5390 c6         1 CXY       0.092300
     30 C7           5.3300     2.1470    -0.8370 c6         1 CXY       0.133600
     31 O6           5.1820    -0.9640     1.8840 oh         1 CXY      -0.687000
     32 O3           6.0640     1.5020     2.7840 oh         1 CXY      -0.670000
     33 O4           5.5670     3.6850     1.0180 oh         1 CXY      -0.729000
     34 O5           5.6180     0.8280    -1.2680 os         1 CXY      -0.478000
     35 H5'1        -2.0530    -2.9580    -1.5980 h1         1 CXY       0.028700
     36 H5'2        -2.4530    -1.2570    -1.8640 h1         1 CXY       0.028700
     37 H4D         -2.5370    -2.7250     0.8050 h1         1 CXY       0.072700
     38 H3D         -4.6350    -2.0770    -1.2860 h1         1 CXY       0.087700
     39 H4          -5.1600    -4.1380    -0.8490 ho         1 CXY       0.496000
     40 H2D         -6.1890    -1.4060     0.3660 h1         1 CXY       0.054700
     41 H7          -5.3600    -3.4870     1.5620 ho         1 CXY       0.523000
     42 H1D         -4.2800    -0.5910     2.3030 h2         1 CXY       0.056700
     43 H6          -4.7200     1.3250     2.8950 h4         1 CXY       0.198000
     44 H5          -5.4640     3.6480     2.4780 ha         1 CXY       0.188000
     45 HN41        -6.1970     4.7730    -0.9490 hn         1 CXY       0.491000
     46 HN42        -6.1320     5.2230     0.7140 hn         1 CXY       0.491000
     47 H1           5.4830    -1.1130    -0.8580 h2         1 CXY       0.077700
     48 H2           6.7970    -0.1230     0.8980 h1         1 CXY       0.003700
     49 H3           4.3330     1.5050     1.6460 h1         1 CXY       0.094700
     50 H8           7.0220     2.3090     0.4740 h1         1 CXY       0.019700
     51 H5D          5.7730     2.8150    -1.5780 h1         1 CXY       0.068200
     52 H5B          4.2520     2.3350    -0.8230 h1         1 CXY       0.068200
     53 H11          5.4860    -1.8360     1.6140 ho         1 CXY       0.496000
     54 H10          5.9330     2.4060     3.0880 ho         1 CXY       0.432000
     55 H9           6.1510     4.3390     0.6230 ho         1 CXY       0.487000
@<TRIPOS>BOND
     1     1     2 1   
     2     2     3 1   
     3     2     4 1   
     4     2     5 1   
     5     4    26 1   
     6     5     6 1   
     7     6     7 1   
     8     6     8 1   
     9     6     9 1   
    10     9    10 1   
    11    10    11 1   
    12    10    35 1   
    13    10    36 1   
    14    11    12 1   
    15    11    13 1   
    16    11    37 1   
    17    12    17 1   
    18    13    14 1   
    19    13    15 1   
    20    13    38 1   
    21    14    39 1   
    22    15    16 1   
    23    15    17 1   
    24    15    40 1   
    25    16    41 1   
    26    17    18 1   
    27    17    42 1   
    28    18    19 1   
    29    18    23 1   
    30    19    20 2   
    31    19    43 1   
    32    20    21 1   
    33    20    44 1   
    34    21    22 2   
    35    21    24 1   
    36    22    23 1   
    37    23    25 2   
    38    24    45 1   
    39    24    46 1   
    40    26    27 1   
    41    26    34 1   
    42    26    47 1   
    43    27    28 1   
    44    27    31 1   
    45    27    48 1   
    46    28    29 1   
    47    28    32 1   
    48    28    49 1   
    49    29    30 1   
    50    29    33 1   
    51    29    50 1   
    52    30    34 1   
    53    30    51 1   
    54    30    52 1   
    55    31    53 1   
    56    32    54 1   
    57    33    55 1   
@<TRIPOS>SUBSTRUCTURE
     1 CXY         1 TEMP              0 ****  ****    0 ROOT
