@<TRIPOS>MOLECULE
CXY
   55    57     1     0     0
SMALL
No Charge or Current Charge


@<TRIPOS>ATOM
      1 O1B          3.6170    -1.1400    -2.5950 o          1 CXY      -0.844000
      2 PB           2.2490    -0.6640    -2.2400 p5         1 CXY       1.461800
      3 O2B          1.5330    -0.0490    -3.3950 o          1 CXY      -0.844000
      4 O1           2.3410     0.4250    -1.0630 os         1 CXY      -0.576400
      5 O3A          1.3710    -1.7040    -1.4460 os         1 CXY      -0.688800
      6 PA           1.2440    -3.0770    -2.2150 p5         1 CXY       1.453800
      7 O1A          2.4310    -3.9520    -1.9900 o          1 CXY      -0.851500
      8 O2A          0.8650    -2.9900    -3.6550 o          1 CXY      -0.851500
      9 O5D          0.0080    -3.6630    -1.3620 os         1 CXY      -0.564400
     10 C5D         -1.3220    -3.1460    -1.5330 c3         1 CXY       0.231600
     11 C4D         -1.7210    -2.3090    -0.2850 c5         1 CXY       0.166300
     12 O4D         -1.2540    -0.9520    -0.3930 os         1 CXY      -0.398000
     13 C3D         -3.2580    -2.0930    -0.1070 c5         1 CXY       0.088300
     14 O3D         -3.9670    -3.2540     0.3810 oh         1 CXY      -0.710000
     15 C2D         -3.2770    -0.9500     0.9580 c5         1 CXY       0.100300
     16 O2D         -3.3160    -1.5610     2.2540 oh         1 CXY      -0.738000
     17 C1D         -1.9150    -0.2140     0.6500 c5         1 CXY       0.322700
     18 N1          -2.2120     1.1970     0.2840 n          1 CXY      -0.306000
     19 C6          -1.9900     2.1890     1.2330 cc         1 CXY       0.046600
     20 C5          -2.1940     3.5030     0.8870 cd         1 CXY      -0.512600
     21 C4          -2.6290     3.7600    -0.4250 cd         1 CXY       0.783500
     22 N3          -2.8540     2.8540    -1.3130 nc         1 CXY      -0.774100
     23 C2          -2.6690     1.5300    -1.0120 c          1 CXY       0.719400
     24 N4          -2.8310     4.9990    -0.8220 nv         1 CXY      -1.049200
     25 O2          -2.9390     0.6960    -1.8600 o          1 CXY      -0.534000
     26 C1           3.1890     0.1700     0.0600 c6         1 CXY       0.407300
     27 C9           2.3920    -0.2920     1.3460 c6         1 CXY       0.158300
     28 C3           1.5100     0.8980     1.8580 c6         1 CXY       0.174300
     29 C8           2.3830     2.1670     2.0760 c6         1 CXY       0.092300
     30 C7           3.1290     2.5090     0.7590 c6         1 CXY       0.133600
     31 O6           1.5970    -1.4830     1.1320 oh         1 CXY      -0.687000
     32 O3           0.8410     0.5990     3.1000 oh         1 CXY      -0.670000
     33 O4           1.5650     3.2660     2.5300 oh         1 CXY      -0.729000
     34 O5           3.9320     1.3800     0.3390 os         1 CXY      -0.478000
     35 H5'1        -2.0250    -3.9820    -1.6370 h1         1 CXY       0.028700
     36 H5'2        -1.4130    -2.5220    -2.4320 h1         1 CXY       0.028700
     37 H4D         -1.2840    -2.7720     0.6110 h1         1 CXY       0.072700
     38 H3D         -3.6990    -1.7340    -1.0500 h1         1 CXY       0.087700
     39 H4          -4.3030    -3.7560    -0.4000 ho         1 CXY       0.496000
     40 H2D         -4.1460    -0.2920     0.8150 h1         1 CXY       0.054700
     41 H7          -3.6530    -2.4700     2.0310 ho         1 CXY       0.523000
     42 H1D         -1.2810    -0.1980     1.5450 h2         1 CXY       0.056700
     43 H6          -1.6580     1.8200     2.2010 h4         1 CXY       0.198000
     44 H5          -2.0280     4.3070     1.5930 ha         1 CXY       0.188000
     45 HN41        -2.8710     5.0950    -1.8270 hn         1 CXY       0.491000
     46 HN42        -2.3080     5.7100    -0.3290 hn         1 CXY       0.491000
     47 H1           3.9150    -0.6190    -0.1910 h2         1 CXY       0.077700
     48 H2           3.1370    -0.5100     2.1250 h1         1 CXY       0.003700
     49 H3           0.7710     1.1300     1.0750 h1         1 CXY       0.094700
     50 H8           3.1400     1.9390     2.8410 h1         1 CXY       0.019700
     51 H5D          3.7920     3.3710     0.9170 h1         1 CXY       0.068200
     52 H5B          2.4130     2.7720    -0.0330 h1         1 CXY       0.068200
     53 H11          1.3630    -1.5040     0.1610 ho         1 CXY       0.496000
     54 H10          0.7420     1.4790     3.5280 ho         1 CXY       0.432000
     55 H9           2.1720     4.0050     2.7700 ho         1 CXY       0.487000
@<TRIPOS>BOND
     1     1     2 1   
     2     2     3 1   
     3     2     4 1   
     4     2     5 1   
     5     4    26 1   
     6     5     6 1   
     7     6     7 1   
     8     6     8 1   
     9     6     9 1   
    10     9    10 1   
    11    10    11 1   
    12    10    35 1   
    13    10    36 1   
    14    11    12 1   
    15    11    13 1   
    16    11    37 1   
    17    12    17 1   
    18    13    14 1   
    19    13    15 1   
    20    13    38 1   
    21    14    39 1   
    22    15    16 1   
    23    15    17 1   
    24    15    40 1   
    25    16    41 1   
    26    17    18 1   
    27    17    42 1   
    28    18    19 1   
    29    18    23 1   
    30    19    20 2   
    31    19    43 1   
    32    20    21 1   
    33    20    44 1   
    34    21    22 2   
    35    21    24 1   
    36    22    23 1   
    37    23    25 2   
    38    24    45 1   
    39    24    46 1   
    40    26    27 1   
    41    26    34 1   
    42    26    47 1   
    43    27    28 1   
    44    27    31 1   
    45    27    48 1   
    46    28    29 1   
    47    28    32 1   
    48    28    49 1   
    49    29    30 1   
    50    29    33 1   
    51    29    50 1   
    52    30    34 1   
    53    30    51 1   
    54    30    52 1   
    55    31    53 1   
    56    32    54 1   
    57    33    55 1   
@<TRIPOS>SUBSTRUCTURE
     1 CXY         1 TEMP              0 ****  ****    0 ROOT
