@<TRIPOS>MOLECULE
CXZ
   47    50     1     0     0
SMALL
abcg2


@<TRIPOS>ATOM
      1 C1          -0.4580     4.4260    22.1370 ca         1 CXZ      -0.133000
      2 C2           0.6140     5.1730    22.5830 ca         1 CXZ      -0.077000
      3 C3           1.8360     4.9410    21.9620 ca         1 CXZ       0.036100
      4 C4           1.9950     3.9970    20.9540 ca         1 CXZ      -0.196900
      5 C5           0.9030     3.2540    20.4970 ca         1 CXZ      -0.120000
      6 C6          -0.3410     3.4730    21.0880 ca         1 CXZ       0.288000
      7 N1          -1.4780     2.8270    20.6450 nu         1 CXZ      -0.968200
      8 C7          -1.4400     1.5860    19.8830 c3         1 CXZ       0.221800
      9 C8          -1.5610     1.7150    18.3620 c3         1 CXZ       0.161800
     10 N2          -0.4210     2.3530    17.7070 n3         1 CXZ      -0.736600
     11 C9          -0.1260     1.7860    16.3930 c6         1 CXZ       0.130300
     12 C10          1.1210     2.4340    15.8160 c6         1 CXZ       0.151100
     13 O1           0.9750     3.8500    15.7160 os         1 CXZ      -0.457000
     14 C11          0.6840     4.4130    16.9950 c6         1 CXZ       0.151100
     15 C12         -0.5700     3.8030    17.5930 c6         1 CXZ       0.130300
     16 C13          3.3820     4.1300    20.5830 cc         1 CXZ       0.475500
     17 N3           3.9600     5.0620    21.3090 nd         1 CXZ      -0.359700
     18 O2           3.0110     5.5940    22.1880 os         1 CXZ      -0.114100
     19 C14          4.1350     3.4420    19.5390 ca         1 CXZ      -0.258900
     20 C15          3.6960     2.2140    19.0380 ca         1 CXZ       0.011000
     21 C16          4.3630     1.5810    18.0100 ca         1 CXZ      -0.030000
     22 C17          5.4970     2.1640    17.4300 ca         1 CXZ       0.209100
     23 C18          5.9560     3.3770    17.9270 ca         1 CXZ      -0.198000
     24 C19          5.3030     4.0090    18.9790 ca         1 CXZ       0.232100
     25 O3           5.8250     5.1750    19.4180 oh         1 CXZ      -0.534100
     26 O4           6.1760     1.5950    16.4110 oh         1 CXZ      -0.519100
     27 CL           3.7990     0.0400    17.4060 cl         1 CXZ      -0.212000
     28 H1          -1.4310     4.5780    22.5880 ha         1 CXZ       0.116000
     29 H2           0.5040     5.9060    23.3700 ha         1 CXZ       0.137000
     30 H5           0.9840     2.5840    19.6570 ha         1 CXZ       0.153000
     31 HN1         -2.2830     2.9320    21.2420 hn         1 CXZ       0.470000
     32 H7          -0.5220     1.0370    20.1170 h1         1 CXZ       0.045200
     33 H7A         -2.2780     0.9730    20.2210 h1         1 CXZ       0.045200
     34 H8          -1.6450     0.6970    17.9750 h1         1 CXZ       0.038700
     35 H8A         -2.5010     2.2310    18.1110 h1         1 CXZ       0.038700
     36 H9           0.0440     0.7130    16.4970 h1         1 CXZ       0.044700
     37 H9A         -0.9670     1.9300    15.6920 h1         1 CXZ       0.044700
     38 H10          1.9820     2.2010    16.4530 h1         1 CXZ       0.053700
     39 H10A         1.3150     2.0650    14.8090 h1         1 CXZ       0.053700
     40 H11          1.5340     4.2500    17.6690 h1         1 CXZ       0.053700
     41 H11A         0.5540     5.4850    16.8420 h1         1 CXZ       0.053700
     42 H12         -1.4370     4.0570    16.9580 h1         1 CXZ       0.044700
     43 H12A        -0.7460     4.2330    18.5770 h1         1 CXZ       0.044700
     44 H15          2.8310     1.7330    19.4660 ha         1 CXZ       0.136000
     45 H18          6.8400     3.8280    17.4970 ha         1 CXZ       0.154000
     46 HO3          5.3210     5.4770    20.2060 ho         1 CXZ       0.510000
     47 HO4          5.7640     0.7500    16.1700 ho         1 CXZ       0.480000
@<TRIPOS>BOND
     1     1     2 ar  
     2     1     6 ar  
     3     1    28 1   
     4     2     3 ar  
     5     2    29 1   
     6     3     4 ar  
     7     3    18 1   
     8     4     5 ar  
     9     4    16 1   
    10     5     6 ar  
    11     5    30 1   
    12     6     7 1   
    13     7     8 1   
    14     7    31 1   
    15     8     9 1   
    16     8    32 1   
    17     8    33 1   
    18     9    10 1   
    19     9    34 1   
    20     9    35 1   
    21    10    11 1   
    22    10    15 1   
    23    11    12 1   
    24    11    36 1   
    25    11    37 1   
    26    12    13 1   
    27    12    38 1   
    28    12    39 1   
    29    13    14 1   
    30    14    15 1   
    31    14    40 1   
    32    14    41 1   
    33    15    42 1   
    34    15    43 1   
    35    16    17 2   
    36    16    19 1   
    37    17    18 1   
    38    19    20 ar  
    39    19    24 ar  
    40    20    21 ar  
    41    20    44 1   
    42    21    22 ar  
    43    21    27 1   
    44    22    23 ar  
    45    22    26 1   
    46    23    24 ar  
    47    23    45 1   
    48    24    25 1   
    49    25    46 1   
    50    26    47 1   
@<TRIPOS>SUBSTRUCTURE
     1 CXZ         1 TEMP              0 ****  ****    0 ROOT
