@<TRIPOS>MOLECULE
CXZ
   47    50     1     0     0
SMALL
No Charge or Current Charge


@<TRIPOS>ATOM
      1 C1          -0.4920     4.3490    22.1710 ca         1 CXZ      -0.133000
      2 C2           0.5890     5.1480    22.6120 ca         1 CXZ      -0.077000
      3 C3           1.8410     4.9390    22.0220 ca         1 CXZ       0.036100
      4 C4           2.0310     3.9920    21.0660 ca         1 CXZ      -0.196900
      5 C5           0.9790     3.1810    20.6090 ca         1 CXZ      -0.120000
      6 C6          -0.3070     3.3710    21.1640 ca         1 CXZ       0.288000
      7 N1          -1.4120     2.6320    20.7210 nu         1 CXZ      -0.968200
      8 C7          -1.4110     1.4470    19.8190 c3         1 CXZ       0.221800
      9 C8          -1.4640     1.7340    18.2760 c3         1 CXZ       0.161800
     10 N2          -0.2880     2.4300    17.6700 n3         1 CXZ      -0.736600
     11 C9           0.0580     1.9570    16.2940 c6         1 CXZ       0.130300
     12 C10          1.3450     2.6580    15.7610 c6         1 CXZ       0.151100
     13 O1           1.1930     4.0980    15.8060 os         1 CXZ      -0.457000
     14 C11          0.9100     4.5870    17.1400 c6         1 CXZ       0.151100
     15 C12         -0.3880     3.9250    17.6920 c6         1 CXZ       0.130300
     16 C13          3.3930     4.1460    20.6500 cc         1 CXZ       0.475500
     17 N3           3.9830     5.1460    21.3130 nd         1 CXZ      -0.359700
     18 O2           2.9850     5.6580    22.2470 os         1 CXZ      -0.114100
     19 C14          4.0150     3.4240    19.5350 ca         1 CXZ      -0.258900
     20 C15          3.7860     2.0370    19.3920 ca         1 CXZ       0.011000
     21 C16          4.3550     1.3230    18.3250 ca         1 CXZ      -0.030000
     22 C17          5.1840     1.9840    17.4020 ca         1 CXZ       0.209100
     23 C18          5.4510     3.3480    17.5600 ca         1 CXZ      -0.198000
     24 C19          4.8860     4.0630    18.6240 ca         1 CXZ       0.232100
     25 O3           5.1800     5.3890    18.7310 oh         1 CXZ      -0.534100
     26 O4           5.7430     1.3060    16.3590 oh         1 CXZ      -0.519100
     27 Cl           4.0190    -0.4020    18.1600 cl         1 CXZ      -0.212000
     28 H1          -1.4770     4.5030    22.6010 ha         1 CXZ       0.116000
     29 H2           0.4500     5.9170    23.3680 ha         1 CXZ       0.137000
     30 H5           1.1350     2.4560    19.8200 ha         1 CXZ       0.153000
     31 HN1         -2.3060     2.8780    21.1490 hn         1 CXZ       0.470000
     32 H7          -0.5420     0.8100    20.0350 h1         1 CXZ       0.045200
     33 H7A         -2.2990     0.8430    20.0510 h1         1 CXZ       0.045200
     34 H8          -1.5790     0.7520    17.7980 h1         1 CXZ       0.038700
     35 H8A         -2.3860     2.2880    18.0510 h1         1 CXZ       0.038700
     36 H9           0.2260     0.8700    16.2940 h1         1 CXZ       0.044700
     37 H9A         -0.7710     2.1580    15.5990 h1         1 CXZ       0.044700
     38 H10          2.2110     2.3660    16.3730 h1         1 CXZ       0.053700
     39 H10A         1.5390     2.3480    14.7250 h1         1 CXZ       0.053700
     40 H11          1.7590     4.3570    17.8000 h1         1 CXZ       0.053700
     41 H11A         0.7890     5.6790    17.1060 h1         1 CXZ       0.053700
     42 H12         -1.2370     4.2570    17.0770 h1         1 CXZ       0.044700
     43 H12A        -0.5720     4.3020    18.7060 h1         1 CXZ       0.044700
     44 H15          3.1690     1.5010    20.1100 ha         1 CXZ       0.136000
     45 H18          6.1020     3.8540    16.8540 ha         1 CXZ       0.154000
     46 HO3          4.8670     5.6960    19.6110 ho         1 CXZ       0.510000
     47 HO4          5.4570     0.3690    16.4310 ho         1 CXZ       0.480000
@<TRIPOS>BOND
     1     1     2 ar  
     2     1     6 ar  
     3     1    28 1   
     4     2     3 ar  
     5     2    29 1   
     6     3     4 ar  
     7     3    18 1   
     8     4     5 ar  
     9     4    16 1   
    10     5     6 ar  
    11     5    30 1   
    12     6     7 1   
    13     7     8 1   
    14     7    31 1   
    15     8     9 1   
    16     8    32 1   
    17     8    33 1   
    18     9    10 1   
    19     9    34 1   
    20     9    35 1   
    21    10    11 1   
    22    10    15 1   
    23    11    12 1   
    24    11    36 1   
    25    11    37 1   
    26    12    13 1   
    27    12    38 1   
    28    12    39 1   
    29    13    14 1   
    30    14    15 1   
    31    14    40 1   
    32    14    41 1   
    33    15    42 1   
    34    15    43 1   
    35    16    17 2   
    36    16    19 1   
    37    17    18 1   
    38    19    20 ar  
    39    19    24 ar  
    40    20    21 ar  
    41    20    44 1   
    42    21    22 ar  
    43    21    27 1   
    44    22    23 ar  
    45    22    26 1   
    46    23    24 ar  
    47    23    45 1   
    48    24    25 1   
    49    25    46 1   
    50    26    47 1   
@<TRIPOS>SUBSTRUCTURE
     1 CXZ         1 TEMP              0 ****  ****    0 ROOT
