@<TRIPOS>MOLECULE
CY0
   49    51     1     0     0
SMALL
abcg2


@<TRIPOS>ATOM
      1 CAI        -52.7150     0.7100   -26.3680 ca         1 CY0      -0.145000
      2 CAF        -52.6580     0.7590   -27.7550 ca         1 CY0      -0.089500
      3 CAE        -52.3480    -0.3650   -28.5060 ca         1 CY0      -0.145000
      4 CAG        -52.0850    -1.5600   -27.8490 ca         1 CY0      -0.089500
      5 CAJ        -52.1410    -1.6260   -26.4680 ca         1 CY0      -0.145000
      6 CAX        -52.4590    -0.4940   -25.7090 ca         1 CY0       0.315000
      7 NAT        -52.4540    -0.6620   -24.3200 nu         1 CY0      -0.932900
      8 C6         -53.0060     0.0900   -23.3420 ca         1 CY0       0.401900
      9 C5         -52.8550    -0.3150   -21.9650 ca         1 CY0      -0.144000
     10 CAM        -52.1390    -1.4470   -21.5370 ca         1 CY0      -0.106000
     11 N1         -53.6780     1.1760   -23.6520 nb         1 CY0      -0.286000
     12 C2         -54.2260     1.8860   -22.6550 ca         1 CY0       0.147900
     13 N3         -54.1820     1.6330   -21.3820 nb         1 CY0      -0.197000
     14 C4         -53.4900     0.5190   -21.0220 ca         1 CY0       0.020000
     15 CAL        -53.3950     0.1850   -19.6570 ca         1 CY0      -0.086000
     16 CAK        -52.6880    -0.9140   -19.2570 ca         1 CY0      -0.102000
     17 CAY        -52.0460    -1.7500   -20.1950 ca         1 CY0      -0.013000
     18 NAS        -51.3570    -2.8640   -19.6990 ns         1 CY0      -0.161000
     19 CAW        -50.1700    -3.3070   -20.1760 c          1 CY0       0.618100
     20 OAC        -49.6080    -2.8090   -21.1390 o          1 CY0      -0.635100
     21 CAO        -49.4830    -4.4260   -19.4150 c3         1 CY0      -0.142400
     22 CAN        -50.2770    -5.2380   -18.4090 c3         1 CY0       0.068600
     23 SAU        -51.5860    -6.1980   -19.2340 ss         1 CY0      -0.508000
     24 CB         -52.8360    -6.3300   -17.9230 c3         1 CY0       0.112600
     25 CA         -53.8210    -5.1690   -17.8620 c3         1 CY0      -0.001500
     26 C          -54.9320    -5.5070   -16.8240 c          1 CY0       0.701000
     27 O          -55.0530    -4.7440   -15.8490 o          1 CY0      -0.718000
     28 N          -53.1280    -3.9090   -17.6270 n8         1 CY0      -1.020200
     29 OXT        -55.5990    -6.5310   -17.0730 o          1 CY0      -0.718000
     30 HAI        -52.9580     1.5990   -25.8110 ha         1 CY0       0.131000
     31 HAF        -52.8600     1.7000   -28.2500 ha         1 CY0       0.107000
     32 HAE        -52.3090    -0.3110   -29.5860 ha         1 CY0       0.107000
     33 HAG        -51.8380    -2.4510   -28.4120 ha         1 CY0       0.107000
     34 HAJ        -51.9390    -2.5670   -25.9700 ha         1 CY0       0.131000
     35 HAT        -52.0430    -1.5330   -24.0280 hn         1 CY0       0.507000
     36 HAM        -51.6590    -2.1020   -22.2470 ha         1 CY0       0.129000
     37 H2         -54.7690     2.7740   -22.9650 h5         1 CY0       0.035100
     38 HAL        -53.8790     0.8260   -18.9320 ha         1 CY0       0.132000
     39 HAK        -52.6020    -1.1410   -18.2020 ha         1 CY0       0.127000
     40 HAS        -51.8240    -3.3320   -18.9010 hn         1 CY0       0.226000
     41 HAO1       -48.6440    -3.9600   -18.8890 hc         1 CY0       0.066200
     42 HAO2       -49.0310    -5.0840   -20.1590 hc         1 CY0       0.066200
     43 HAN1       -50.7260    -4.6040   -17.6470 h1         1 CY0       0.062200
     44 HAN2       -49.5980    -5.9210   -17.8980 h1         1 CY0       0.062200
     45 HBC1       -52.3190    -6.4590   -16.9670 h1         1 CY0       0.074200
     46 HBC2       -53.3810    -7.2530   -18.1170 h1         1 CY0       0.074200
     47 HA         -54.3000    -5.0960   -18.8440 h1         1 CY0       0.061700
     48 HN1        -52.7870    -3.9020   -16.6700 hn         1 CY0       0.395500
     49 HN2        -53.8130    -3.1630   -17.6490 hn         1 CY0       0.395500
@<TRIPOS>BOND
     1     1     2 ar  
     2     1     6 ar  
     3     1    30 1   
     4     2     3 ar  
     5     2    31 1   
     6     3     4 ar  
     7     3    32 1   
     8     4     5 ar  
     9     4    33 1   
    10     5     6 ar  
    11     5    34 1   
    12     6     7 1   
    13     7     8 1   
    14     7    35 1   
    15     8     9 ar  
    16     8    11 ar  
    17     9    10 ar  
    18     9    14 ar  
    19    10    17 ar  
    20    10    36 1   
    21    11    12 ar  
    22    12    13 ar  
    23    12    37 1   
    24    13    14 ar  
    25    14    15 ar  
    26    15    16 ar  
    27    15    38 1   
    28    16    17 ar  
    29    16    39 1   
    30    17    18 1   
    31    18    19 1   
    32    18    40 1   
    33    19    20 2   
    34    19    21 1   
    35    21    22 1   
    36    21    41 1   
    37    21    42 1   
    38    22    23 1   
    39    22    43 1   
    40    22    44 1   
    41    23    24 1   
    42    24    25 1   
    43    24    45 1   
    44    24    46 1   
    45    25    26 1   
    46    25    28 1   
    47    25    47 1   
    48    26    27 1   
    49    26    29 1   
    50    28    48 1   
    51    28    49 1   
@<TRIPOS>SUBSTRUCTURE
     1 CY0         1 TEMP              0 ****  ****    0 ROOT
