@<TRIPOS>MOLECULE
CY0
   49    51     1     0     0
SMALL
No Charge or Current Charge


@<TRIPOS>ATOM
      1 CAI        -52.2260     0.6640   -26.6450 ca         1 CY0      -0.145000
      2 CAF        -52.1920     0.5220   -28.0440 ca         1 CY0      -0.089500
      3 CAE        -52.4900    -0.7190   -28.6300 ca         1 CY0      -0.145000
      4 CAG        -52.8140    -1.8180   -27.8180 ca         1 CY0      -0.089500
      5 CAJ        -52.8450    -1.6720   -26.4200 ca         1 CY0      -0.145000
      6 CAX        -52.5650    -0.4290   -25.8240 ca         1 CY0       0.315000
      7 NAT        -52.5910    -0.3330   -24.4280 nu         1 CY0      -0.932900
      8 C6         -52.8010     0.7140   -23.5270 ca         1 CY0       0.401900
      9 C5         -52.4930     0.5930   -22.1470 ca         1 CY0      -0.144000
     10 CAM        -51.9000    -0.5670   -21.5910 ca         1 CY0      -0.106000
     11 N1         -53.3670     1.8280   -24.0220 nb         1 CY0      -0.286000
     12 C2         -53.6100     2.8240   -23.1500 ca         1 CY0       0.147900
     13 N3         -53.3520     2.8150   -21.8280 nb         1 CY0      -0.197000
     14 C4         -52.7930     1.7000   -21.3140 ca         1 CY0       0.020000
     15 CAL        -52.4990     1.6230   -19.9420 ca         1 CY0      -0.086000
     16 CAK        -51.9160     0.4680   -19.3960 ca         1 CY0      -0.102000
     17 CAY        -51.6160    -0.6390   -20.2100 ca         1 CY0      -0.013000
     18 NAS        -51.0190    -1.7720   -19.5890 ns         1 CY0      -0.161000
     19 CAW        -50.7760    -3.0650   -20.0360 c          1 CY0       0.618100
     20 OAC        -51.0860    -3.4750   -21.1500 o          1 CY0      -0.635100
     21 CAO        -50.0310    -3.9470   -19.0210 c3         1 CY0      -0.142400
     22 CAN        -50.9860    -4.8430   -18.2030 c3         1 CY0       0.068600
     23 SAU        -51.6760    -6.2310   -19.2170 ss         1 CY0      -0.508000
     24 CB         -52.5140    -7.2470   -17.8970 c3         1 CY0       0.112600
     25 CA         -53.9800    -6.8030   -17.6180 c3         1 CY0      -0.001500
     26 C          -54.7430    -7.9910   -16.9130 c          1 CY0       0.701000
     27 O          -54.3770    -8.3360   -15.7970 o          1 CY0      -0.718000
     28 N          -54.0650    -5.4590   -16.9130 n8         1 CY0      -1.020200
     29 OXT        -55.7210    -8.4660   -17.4740 o          1 CY0      -0.718000
     30 HAI        -51.9690     1.6230   -26.2070 ha         1 CY0       0.131000
     31 HAF        -51.9300     1.3710   -28.6720 ha         1 CY0       0.107000
     32 HAE        -52.4640    -0.8310   -29.7120 ha         1 CY0       0.107000
     33 HAG        -53.0390    -2.7820   -28.2700 ha         1 CY0       0.107000
     34 HAJ        -53.0970    -2.5280   -25.8000 ha         1 CY0       0.131000
     35 HAT        -52.5170    -1.2350   -23.9640 hn         1 CY0       0.507000
     36 HAM        -51.6450    -1.3980   -22.2370 ha         1 CY0       0.129000
     37 H2         -54.0640     3.7280   -23.5530 h5         1 CY0       0.035100
     38 HAL        -52.7230     2.4670   -19.2930 ha         1 CY0       0.132000
     39 HAK        -51.7000     0.4370   -18.3300 ha         1 CY0       0.127000
     40 HAS        -50.7100    -1.6050   -18.6410 hn         1 CY0       0.226000
     41 HAO1       -49.5100    -3.3060   -18.3000 hc         1 CY0       0.066200
     42 HAO2       -49.3100    -4.5840   -19.5460 hc         1 CY0       0.066200
     43 HAN1       -51.8040    -4.2380   -17.7920 h1         1 CY0       0.062200
     44 HAN2       -50.4300    -5.2770   -17.3610 h1         1 CY0       0.062200
     45 HBC1       -51.9250    -7.2250   -16.9700 h1         1 CY0       0.074200
     46 HBC2       -52.5320    -8.2880   -18.2480 h1         1 CY0       0.074200
     47 HA         -54.4620    -6.6830   -18.5980 h1         1 CY0       0.061700
     48 HN1        -53.7620    -5.5790   -15.9380 hn         1 CY0       0.395500
     49 HN2        -55.0530    -5.1920   -16.8160 hn         1 CY0       0.395500
@<TRIPOS>BOND
     1     1     2 ar  
     2     1     6 ar  
     3     1    30 1   
     4     2     3 ar  
     5     2    31 1   
     6     3     4 ar  
     7     3    32 1   
     8     4     5 ar  
     9     4    33 1   
    10     5     6 ar  
    11     5    34 1   
    12     6     7 1   
    13     7     8 1   
    14     7    35 1   
    15     8     9 ar  
    16     8    11 ar  
    17     9    10 ar  
    18     9    14 ar  
    19    10    17 ar  
    20    10    36 1   
    21    11    12 ar  
    22    12    13 ar  
    23    12    37 1   
    24    13    14 ar  
    25    14    15 ar  
    26    15    16 ar  
    27    15    38 1   
    28    16    17 ar  
    29    16    39 1   
    30    17    18 1   
    31    18    19 1   
    32    18    40 1   
    33    19    20 2   
    34    19    21 1   
    35    21    22 1   
    36    21    41 1   
    37    21    42 1   
    38    22    23 1   
    39    22    43 1   
    40    22    44 1   
    41    23    24 1   
    42    24    25 1   
    43    24    45 1   
    44    24    46 1   
    45    25    26 1   
    46    25    28 1   
    47    25    47 1   
    48    26    27 1   
    49    26    29 1   
    50    28    48 1   
    51    28    49 1   
@<TRIPOS>SUBSTRUCTURE
     1 CY0         1 TEMP              0 ****  ****    0 ROOT
