@<TRIPOS>MOLECULE
CY1
   23    22     1     0     0
SMALL
No Charge or Current Charge


@<TRIPOS>ATOM
      1 N           21.8240    26.0350    28.4990 n8         1 CY1      -0.889800
      2 CA          22.3400    24.6080    28.4460 c3         1 CY1       0.025500
      3 CB          23.0550    24.2340    29.7750 c3         1 CY1       0.064700
      4 SG          21.8900    24.1590    31.2210 ss         1 CY1      -0.342200
      5 CD          22.2930    22.4930    31.8930 c3         1 CY1       0.172100
      6 NE          22.0130    21.4180    30.9560 ns         1 CY1      -0.552900
      7 CZ          22.0470    20.0850    31.2670 c          1 CY1       0.682100
      8 OAC         22.3140    19.6840    32.3910 o          1 CY1      -0.642100
      9 CM          21.7280    19.1460    30.1110 c3         1 CY1      -0.173100
     10 C           21.3360    23.4640    27.9610 c          1 CY1       0.940600
     11 O           20.3770    23.7800    27.2580 o          1 CY1      -0.835800
     12 OXT         21.5410    22.2990    28.2890 o          1 CY1      -0.835800
     13 H           21.4220    26.2770    27.5870 hn         1 CY1       0.329800
     14 H2          22.6090    26.6810    28.6220 hn         1 CY1       0.329800
     15 HA          23.1240    24.6260    27.6770 h1         1 CY1       0.003700
     16 HB2         23.5590    23.2660    29.6600 h1         1 CY1       0.050200
     17 HB3         23.8310    24.9780    29.9960 h1         1 CY1       0.050200
     18 HD2         23.3580    22.4600    32.1520 h2         1 CY1       0.061200
     19 HD3         21.6970    22.3260    32.7990 h2         1 CY1       0.061200
     20 HE          21.7910    21.6600    29.9900 hn         1 CY1       0.327500
     21 HM1         22.4090    19.3620    29.2810 hc         1 CY1       0.058033
     22 HM2         21.7630    18.0910    30.4020 hc         1 CY1       0.058033
     23 HM3         20.7540    19.4200    29.6890 hc         1 CY1       0.058033
@<TRIPOS>BOND
     1     1     2 1   
     2     1    13 1   
     3     1    14 1   
     4     2     3 1   
     5     2    10 1   
     6     2    15 1   
     7     3     4 1   
     8     3    16 1   
     9     3    17 1   
    10     4     5 1   
    11     5     6 1   
    12     5    18 1   
    13     5    19 1   
    14     6     7 1   
    15     6    20 1   
    16     7     8 2   
    17     7     9 1   
    18     9    21 1   
    19     9    22 1   
    20     9    23 1   
    21    10    11 1   
    22    10    12 1   
@<TRIPOS>SUBSTRUCTURE
     1 CY1         1 TEMP              0 ****  ****    0 ROOT
