@<TRIPOS>MOLECULE
CY1
   23    22     1     0     0
SMALL
bcc


@<TRIPOS>ATOM
      1 N           22.1090    25.8410    28.6360 n8         1 CY1      -0.889800
      2 CA          22.5500    24.4700    28.4510 c3         1 CY1       0.025500
      3 CB          22.9850    23.8930    29.7880 c3         1 CY1       0.064700
      4 SG          21.6340    24.0800    30.9960 ss         1 CY1      -0.342200
      5 CD          21.8390    22.5770    31.9970 c3         1 CY1       0.172100
      6 NE          21.5200    21.3700    31.2890 ns         1 CY1      -0.552900
      7 CZ          22.4250    20.4350    30.9310 c          1 CY1       0.682100
      8 OAC         23.5960    20.4660    31.2820 o          1 CY1      -0.642100
      9 CM          21.8890    19.3370    30.0480 c3         1 CY1      -0.173100
     10 C           21.4540    23.6040    27.7720 c          1 CY1       0.940600
     11 O           20.5220    24.2120    27.2120 o          1 CY1      -0.835800
     12 OXT         21.6330    22.3710    27.8020 o          1 CY1      -0.835800
     13 H           21.5480    26.1090    27.8390 hn         1 CY1       0.329800
     14 H2          22.9050    26.4650    28.6710 hn         1 CY1       0.329800
     15 HA          23.4310    24.4000    27.7890 h1         1 CY1       0.003700
     16 HB2         23.2300    22.8400    29.6800 h1         1 CY1       0.050200
     17 HB3         23.8700    24.4110    30.1650 h1         1 CY1       0.050200
     18 HD2         22.8530    22.5050    32.3820 h2         1 CY1       0.061200
     19 HD3         21.1660    22.7060    32.8450 h2         1 CY1       0.061200
     20 HE          20.5900    21.3040    30.9080 hn         1 CY1       0.327500
     21 HM1         22.3140    19.4480    29.0500 hc         1 CY1       0.058033
     22 HM2         22.2060    18.3690    30.4320 hc         1 CY1       0.058033
     23 HM3         20.8050    19.3390    29.9560 hc         1 CY1       0.058033
@<TRIPOS>BOND
     1     1     2 1   
     2     1    13 1   
     3     1    14 1   
     4     2     3 1   
     5     2    10 1   
     6     2    15 1   
     7     3     4 1   
     8     3    16 1   
     9     3    17 1   
    10     4     5 1   
    11     5     6 1   
    12     5    18 1   
    13     5    19 1   
    14     6     7 1   
    15     6    20 1   
    16     7     8 2   
    17     7     9 1   
    18     9    21 1   
    19     9    22 1   
    20     9    23 1   
    21    10    11 1   
    22    10    12 1   
@<TRIPOS>SUBSTRUCTURE
     1 CY1         1 TEMP              0 ****  ****    0 ROOT
