@<TRIPOS>MOLECULE
CY3
   15    14     1     0     0
SMALL
No Charge or Current Charge


@<TRIPOS>ATOM
      1 N           26.0360    19.3270    17.9280 n8         1 CY3      -0.874800
      2 CA          25.2720    18.4370    16.9850 c3         1 CY3       0.086500
      3 C           25.5450    18.6540    15.4490 c          1 CY3       0.678100
      4 O           26.0990    19.6410    14.9860 o          1 CY3      -0.593100
      5 CB          23.7510    18.4980    17.2880 c3         1 CY3      -0.018300
      6 SG          23.2900    18.1270    19.0510 sh         1 CY3      -0.391900
      7 N1          25.1300    17.6730    14.6130 nt         1 CY3      -0.676000
      8 H           25.7240    19.1480    18.8870 hn         1 CY3       0.355300
      9 H2          25.7890    20.3070    17.7500 hn         1 CY3       0.355300
     10 HA          25.5950    17.4070    17.1920 h1         1 CY3       0.078700
     11 HB2         23.2280    17.7720    16.6510 h1         1 CY3       0.080700
     12 HB3         23.3670    19.4950    17.0320 h1         1 CY3       0.080700
     13 HG          23.6430    19.3310    19.5670 hs         1 CY3       0.207800
     14 HN11        24.6820    16.8460    14.9800 hn         1 CY3       0.316000
     15 HN12        25.2900    17.7750    13.6210 hn         1 CY3       0.316000
@<TRIPOS>BOND
     1     1     2 1   
     2     1     8 1   
     3     1     9 1   
     4     2     3 1   
     5     2     5 1   
     6     2    10 1   
     7     3     4 2   
     8     3     7 1   
     9     5     6 1   
    10     5    11 1   
    11     5    12 1   
    12     6    13 1   
    13     7    14 1   
    14     7    15 1   
@<TRIPOS>SUBSTRUCTURE
     1 CY3         1 TEMP              0 ****  ****    0 ROOT
