@<TRIPOS>MOLECULE
CY3
   15    14     1     0     0
SMALL
bcc


@<TRIPOS>ATOM
      1 N           26.0720    19.2340    17.7980 n8         1 CY3      -0.874800
      2 CA          25.2030    18.4000    17.0030 c3         1 CY3       0.086500
      3 C           25.4490    18.6910    15.5230 c          1 CY3       0.678100
      4 O           25.7250    19.8140    15.1320 o          1 CY3      -0.593100
      5 CB          23.6960    18.5730    17.2570 c3         1 CY3      -0.018300
      6 SG          23.2090    18.2080    18.9710 sh         1 CY3      -0.391900
      7 N1          25.2900    17.6420    14.7040 nt         1 CY3      -0.676000
      8 H           25.9450    19.0200    18.7790 hn         1 CY3       0.355300
      9 H2          25.8280    20.2100    17.6780 hn         1 CY3       0.355300
     10 HA          25.4560    17.3560    17.2100 h1         1 CY3       0.078700
     11 HB2         23.1210    17.8810    16.6390 h1         1 CY3       0.080700
     12 HB3         23.3720    19.5840    17.0050 h1         1 CY3       0.080700
     13 HG          23.6420    19.3450    19.5280 hs         1 CY3       0.207800
     14 HN11        25.0730    16.7220    15.0480 hn         1 CY3       0.316000
     15 HN12        25.3600    17.7580    13.7060 hn         1 CY3       0.316000
@<TRIPOS>BOND
     1     1     2 1   
     2     1     8 1   
     3     1     9 1   
     4     2     3 1   
     5     2     5 1   
     6     2    10 1   
     7     3     4 2   
     8     3     7 1   
     9     5     6 1   
    10     5    11 1   
    11     5    12 1   
    12     6    13 1   
    13     7    14 1   
    14     7    15 1   
@<TRIPOS>SUBSTRUCTURE
     1 CY3         1 TEMP              0 ****  ****    0 ROOT
