@<TRIPOS>MOLECULE
CY6
   82    83     1     0     0
SMALL
abcg2


@<TRIPOS>ATOM
      1 C5          -4.9670    -4.8490    -2.6440 c3         1 CY6      -0.135400
      2 C6          -4.9040    -3.6430    -1.7910 cc         1 CY6       0.173300
      3 O7          -5.0100    -3.8070    -0.4630 os         1 CY6      -0.058700
      4 N8          -4.9290    -2.6140     0.1610 nc         1 CY6      -0.362300
      5 C9          -4.7770    -1.7250    -0.7780 cd         1 CY6       0.219500
      6 C10         -4.7520    -2.3230    -2.0570 cd         1 CY6      -0.197000
      7 C11         -4.6330    -0.2760    -0.4680 c          1 CY6       0.528600
      8 O12         -4.4700     0.5270    -1.3690 o          1 CY6      -0.577100
      9 N13         -4.6860     0.0250     0.8410 ns         1 CY6      -0.497900
     10 C14         -4.5060     1.3520     1.4010 c3         1 CY6       0.017700
     11 C15         -5.6460     1.7460     2.3390 c3         1 CY6      -0.064700
     12 C16         -5.4230     3.1620     2.8660 c3         1 CY6      -0.089600
     13 C17         -6.9890     1.6540     1.6230 c3         1 CY6      -0.089600
     14 C18         -3.1280     1.2650     2.0640 c          1 CY6       0.558100
     15 O19         -3.0050     1.0120     3.2380 o          1 CY6      -0.517100
     16 C20         -1.9440     1.4420     1.1460 c3         1 CY6      -0.175400
     17 C21         -0.8180     0.4400     1.3990 c3         1 CY6      -0.124700
     18 C22         -1.2340    -0.9790     0.9750 c3         1 CY6      -0.029200
     19 C23         -0.1610    -1.9930     1.2210 c2         1 CY6      -0.252200
     20 C24          0.6050    -2.6080     0.3160 c2         1 CY6      -0.087400
     21 C25          0.5330    -2.3780    -1.1630 c3         1 CY6      -0.064900
     22 C26          1.6390    -3.6100     0.7390 c3         1 CY6      -0.064900
     23 C29          0.4110     0.8540     0.6080 c          1 CY6       0.606100
     24 O30          0.3520     1.0910    -0.5890 o          1 CY6      -0.592100
     25 N31          1.5480     0.9500     1.3180 ns         1 CY6      -0.502900
     26 C32          2.8310     1.2560     0.7180 c3         1 CY6       0.137900
     27 C33          3.4340     0.0190     0.1210 c2         1 CY6      -0.162200
     28 C34          3.8910    -0.0490    -1.1260 ce         1 CY6      -0.256200
     29 C35          4.5170    -1.2750    -1.6530 c          1 CY6       0.595300
     30 O36          4.6830    -2.3000    -1.0320 o          1 CY6      -0.506000
     31 O37          4.8870    -1.1160    -2.9170 os         1 CY6      -0.441100
     32 C38          5.5120    -2.2250    -3.5820 c3         1 CY6       0.167600
     33 C39          5.8420    -1.7920    -4.9900 c3         1 CY6      -0.097100
     34 C40          3.7430     1.8470     1.8000 c3         1 CY6      -0.063400
     35 C41          5.1380     2.2370     1.3350 c5         1 CY6      -0.153700
     36 C42          6.0670     2.6530     2.4770 c5         1 CY6      -0.092400
     37 C43          7.0600     3.6070     1.8140 c5         1 CY6       0.100000
     38 N44          6.2740     4.1570     0.7300 ns         1 CY6      -0.514900
     39 C45          5.1980     3.4290     0.3900 c          1 CY6       0.561000
     40 O46          4.4280     3.6780    -0.5250 o          1 CY6      -0.550000
     41 H51         -4.1710    -5.5510    -2.3960 hc         1 CY6       0.065033
     42 H52         -5.9190    -5.3680    -2.5250 hc         1 CY6       0.065033
     43 H53         -4.8610    -4.5640    -3.6870 hc         1 CY6       0.065033
     44 H10         -4.6340    -1.8490    -3.0160 ha         1 CY6       0.172000
     45 H13         -4.8340    -0.7340     1.4920 hn         1 CY6       0.338500
     46 H14         -4.4600     2.0590     0.5690 h1         1 CY6       0.095700
     47 H15         -5.6540     1.0530     3.1860 hc         1 CY6       0.064700
     48 H161        -5.4010     3.8820     2.0450 hc         1 CY6       0.038867
     49 H162        -6.2340     3.4500     3.5350 hc         1 CY6       0.038867
     50 H163        -4.4920     3.2600     3.4240 hc         1 CY6       0.038867
     51 H171        -7.2070     0.6430     1.2790 hc         1 CY6       0.038867
     52 H172        -7.7960     1.9520     2.2940 hc         1 CY6       0.038867
     53 H173        -7.0180     2.3190     0.7560 hc         1 CY6       0.038867
     54 H201        -1.5920     2.4670     1.3230 hc         1 CY6       0.083200
     55 H202        -2.2570     1.4110     0.1020 hc         1 CY6       0.083200
     56 H21         -0.5850     0.4350     2.4670 hc         1 CY6       0.065700
     57 H221        -2.1180    -1.2650     1.5530 hc         1 CY6       0.055700
     58 H222        -1.5460    -0.9620    -0.0710 hc         1 CY6       0.055700
     59 H23          0.0090    -2.2300     2.2690 ha         1 CY6       0.163000
     60 H251        -0.2070    -1.6370    -1.4540 hc         1 CY6       0.045033
     61 H252         1.5020    -2.0290    -1.5290 hc         1 CY6       0.045033
     62 H253         0.3140    -3.3100    -1.6890 hc         1 CY6       0.045033
     63 H261         1.6850    -3.7230     1.8210 hc         1 CY6       0.045033
     64 H262         1.4280    -4.5920     0.3060 hc         1 CY6       0.045033
     65 H263         2.6310    -3.3210     0.3820 hc         1 CY6       0.045033
     66 H31          1.5360     0.6610     2.2840 hn         1 CY6       0.311500
     67 H32          2.6740     1.9980    -0.0630 h1         1 CY6       0.112700
     68 H33          3.5050    -0.8430     0.7780 ha         1 CY6       0.186000
     69 H34          3.8250     0.8080    -1.7860 ha         1 CY6       0.216000
     70 H381         4.8320    -3.0800    -3.5870 h1         1 CY6       0.046200
     71 H382         6.4150    -2.5170    -3.0420 h1         1 CY6       0.046200
     72 H391         6.3090    -2.6220    -5.5190 hc         1 CY6       0.046700
     73 H392         4.9470    -1.5070    -5.5430 hc         1 CY6       0.046700
     74 H393         6.5390    -0.9540    -5.0000 hc         1 CY6       0.046700
     75 H401         3.2420     2.7180     2.2330 hc         1 CY6       0.050700
     76 H402         3.8510     1.1140     2.6060 hc         1 CY6       0.050700
     77 H41          5.5920     1.3980     0.7930 hc         1 CY6       0.081700
     78 H421         5.4970     3.1850     3.2430 hc         1 CY6       0.058200
     79 H422         6.5560     1.8060     2.9540 hc         1 CY6       0.058200
     80 H431         7.4060     4.3920     2.4860 h1         1 CY6       0.046200
     81 H432         7.9390     3.0770     1.4350 h1         1 CY6       0.046200
     82 H44          6.5920     4.9320     0.1690 hn         1 CY6       0.329500
@<TRIPOS>BOND
     1     1     2 1   
     2     1    41 1   
     3     1    42 1   
     4     1    43 1   
     5     2     3 1   
     6     2     6 2   
     7     3     4 1   
     8     4     5 2   
     9     5     6 1   
    10     5     7 1   
    11     6    44 1   
    12     7     8 2   
    13     7     9 1   
    14     9    10 1   
    15     9    45 1   
    16    10    11 1   
    17    10    14 1   
    18    10    46 1   
    19    11    12 1   
    20    11    13 1   
    21    11    47 1   
    22    12    48 1   
    23    12    49 1   
    24    12    50 1   
    25    13    51 1   
    26    13    52 1   
    27    13    53 1   
    28    14    15 2   
    29    14    16 1   
    30    16    17 1   
    31    16    54 1   
    32    16    55 1   
    33    17    18 1   
    34    17    23 1   
    35    17    56 1   
    36    18    19 1   
    37    18    57 1   
    38    18    58 1   
    39    19    20 2   
    40    19    59 1   
    41    20    21 1   
    42    20    22 1   
    43    21    60 1   
    44    21    61 1   
    45    21    62 1   
    46    22    63 1   
    47    22    64 1   
    48    22    65 1   
    49    23    24 2   
    50    23    25 1   
    51    25    26 1   
    52    25    66 1   
    53    26    27 1   
    54    26    34 1   
    55    26    67 1   
    56    27    28 2   
    57    27    68 1   
    58    28    29 1   
    59    28    69 1   
    60    29    30 2   
    61    29    31 1   
    62    31    32 1   
    63    32    33 1   
    64    32    70 1   
    65    32    71 1   
    66    33    72 1   
    67    33    73 1   
    68    33    74 1   
    69    34    35 1   
    70    34    75 1   
    71    34    76 1   
    72    35    36 1   
    73    35    39 1   
    74    35    77 1   
    75    36    37 1   
    76    36    78 1   
    77    36    79 1   
    78    37    38 1   
    79    37    80 1   
    80    37    81 1   
    81    38    39 1   
    82    38    82 1   
    83    39    40 2   
@<TRIPOS>SUBSTRUCTURE
     1 CY6         1 TEMP              0 ****  ****    0 ROOT
