@<TRIPOS>MOLECULE
CY6
   82    83     1     0     0
SMALL
No Charge or Current Charge


@<TRIPOS>ATOM
      1 C5          -4.1880    -4.1920    -3.6800 c3         1 CY6      -0.135400
      2 C6          -4.2490    -3.2390    -2.5240 cc         1 CY6       0.173300
      3 O7          -4.2800    -3.7260    -1.2420 os         1 CY6      -0.058700
      4 N8          -4.3250    -2.6080    -0.3280 nc         1 CY6      -0.362300
      5 C9          -4.3200    -1.5290    -1.1080 cd         1 CY6       0.219500
      6 C10         -4.2760    -1.8830    -2.4730 cd         1 CY6      -0.197000
      7 C11         -4.3370    -0.1230    -0.5760 c          1 CY6       0.528600
      8 O12         -4.3250     0.8800    -1.2800 o          1 CY6      -0.577100
      9 N13         -4.3370    -0.0490     0.8070 ns         1 CY6      -0.497900
     10 C14         -4.2670     1.2010     1.5980 c3         1 CY6       0.017700
     11 C15         -5.5380     1.3960     2.4850 c3         1 CY6      -0.064700
     12 C16         -5.5510     2.7810     3.1800 c3         1 CY6      -0.089600
     13 C17         -6.8550     1.1890     1.6910 c3         1 CY6      -0.089600
     14 C18         -2.9190     1.2120     2.3840 c          1 CY6       0.558100
     15 O19         -2.8440     0.9640     3.5830 o          1 CY6      -0.517100
     16 C20         -1.6630     1.5850     1.5760 c3         1 CY6      -0.175400
     17 C21         -0.5840     0.4560     1.5010 c3         1 CY6      -0.124700
     18 C22         -1.1220    -0.8730     0.9110 c3         1 CY6      -0.029200
     19 C23         -0.0780    -1.9770     0.8940 c2         1 CY6      -0.252200
     20 C24          0.4980    -2.5700    -0.1700 c2         1 CY6      -0.087400
     21 C25          0.2540    -2.2250    -1.6330 c3         1 CY6      -0.064900
     22 C26          1.4780    -3.7190    -0.0150 c3         1 CY6      -0.064900
     23 C29          0.6530     0.9430     0.7160 c          1 CY6       0.606100
     24 O30          0.5930     1.3050    -0.4520 o          1 CY6      -0.592100
     25 N31          1.8300     0.9650     1.4320 ns         1 CY6      -0.502900
     26 C32          3.1180     1.4080     0.9030 c3         1 CY6       0.137900
     27 C33          3.8790     0.1900     0.4240 c2         1 CY6      -0.162200
     28 C34          3.6960    -0.4220    -0.7700 ce         1 CY6      -0.256200
     29 C35          4.4440    -1.6220    -1.2220 c          1 CY6       0.595300
     30 O36          5.3110    -2.1830    -0.5670 o          1 CY6      -0.506000
     31 O37          4.0080    -2.0340    -2.4510 os         1 CY6      -0.441100
     32 C38          4.5890    -3.2220    -3.0110 c3         1 CY6       0.167600
     33 C39          3.8910    -3.4850    -4.3540 c3         1 CY6      -0.097100
     34 C40          3.8880     2.2280     1.9660 c3         1 CY6      -0.063400
     35 C41          5.2530     2.8100     1.5010 c5         1 CY6      -0.153700
     36 C42          6.0630     3.5100     2.6250 c5         1 CY6      -0.092400
     37 C43          7.0750     4.3460     1.7950 c5         1 CY6       0.100000
     38 N44          6.2350     4.7370     0.6640 ns         1 CY6      -0.514900
     39 C45          5.1690     3.9110     0.4310 c          1 CY6       0.561000
     40 O46          4.2550     4.2090    -0.3190 o          1 CY6      -0.550000
     41 H51         -3.2450    -4.7510    -3.6710 hc         1 CY6       0.065033
     42 H52         -5.0130    -4.9120    -3.6350 hc         1 CY6       0.065033
     43 H53         -4.2560    -3.6560    -4.6340 hc         1 CY6       0.065033
     44 H10         -4.2580    -1.2040    -3.3170 ha         1 CY6       0.172000
     45 H13         -4.3680    -0.9380     1.2970 hn         1 CY6       0.338500
     46 H14         -4.2220     2.0520     0.9050 h1         1 CY6       0.095700
     47 H15         -5.5200     0.6320     3.2730 hc         1 CY6       0.064700
     48 H161        -5.5670     3.5890     2.4380 hc         1 CY6       0.038867
     49 H162        -6.4390     2.8860     3.8160 hc         1 CY6       0.038867
     50 H163        -4.6710     2.9200     3.8170 hc         1 CY6       0.038867
     51 H171        -6.9360     0.1630     1.3120 hc         1 CY6       0.038867
     52 H172        -7.7260     1.3700     2.3320 hc         1 CY6       0.038867
     53 H173        -6.9080     1.8770     0.8390 hc         1 CY6       0.038867
     54 H201        -1.2100     2.4600     2.0570 hc         1 CY6       0.083200
     55 H202        -1.9580     1.8690     0.5590 hc         1 CY6       0.083200
     56 H21         -0.2630     0.2380     2.5280 hc         1 CY6       0.065700
     57 H221        -1.9650    -1.2190     1.5190 hc         1 CY6       0.055700
     58 H222        -1.5310    -0.6800    -0.0860 hc         1 CY6       0.055700
     59 H23          0.1780    -2.3260     1.8950 ha         1 CY6       0.163000
     60 H251        -0.3760    -1.3420    -1.7730 hc         1 CY6       0.045033
     61 H252         1.1990    -2.0180    -2.1480 hc         1 CY6       0.045033
     62 H253        -0.2300    -3.0580    -2.1550 hc         1 CY6       0.045033
     63 H261         1.6500    -3.9690     1.0380 hc         1 CY6       0.045033
     64 H262         1.1050    -4.6240    -0.5100 hc         1 CY6       0.045033
     65 H263         2.4500    -3.4760    -0.4560 hc         1 CY6       0.045033
     66 H31          1.7880     0.6390     2.3890 hn         1 CY6       0.311500
     67 H32          2.9310     2.0640     0.0410 h1         1 CY6       0.112700
     68 H33          4.6140    -0.1950     1.1340 ha         1 CY6       0.186000
     69 H34          2.9540    -0.0510    -1.4750 ha         1 CY6       0.216000
     70 H381         4.4360    -4.0830    -2.3460 h1         1 CY6       0.046200
     71 H382         5.6670    -3.0920    -3.1740 h1         1 CY6       0.046200
     72 H391         4.2990    -4.3880    -4.8230 hc         1 CY6       0.046700
     73 H392         2.8140    -3.6290    -4.2070 hc         1 CY6       0.046700
     74 H393         4.0420    -2.6430    -5.0400 hc         1 CY6       0.046700
     75 H401         3.2430     3.0500     2.3040 hc         1 CY6       0.050700
     76 H402         4.0500     1.5910     2.8440 hc         1 CY6       0.050700
     77 H41          5.8870     2.0110     1.0990 hc         1 CY6       0.081700
     78 H421         5.4240     4.1650     3.2300 hc         1 CY6       0.058200
     79 H422         6.5540     2.8060     3.3070 hc         1 CY6       0.058200
     80 H431         7.4600     5.2060     2.3590 h1         1 CY6       0.046200
     81 H432         7.9280     3.7360     1.4660 h1         1 CY6       0.046200
     82 H44          6.3160     5.5940     0.1300 hn         1 CY6       0.329500
@<TRIPOS>BOND
     1     1     2 1   
     2     1    41 1   
     3     1    42 1   
     4     1    43 1   
     5     2     3 1   
     6     2     6 2   
     7     3     4 1   
     8     4     5 2   
     9     5     6 1   
    10     5     7 1   
    11     6    44 1   
    12     7     8 2   
    13     7     9 1   
    14     9    10 1   
    15     9    45 1   
    16    10    11 1   
    17    10    14 1   
    18    10    46 1   
    19    11    12 1   
    20    11    13 1   
    21    11    47 1   
    22    12    48 1   
    23    12    49 1   
    24    12    50 1   
    25    13    51 1   
    26    13    52 1   
    27    13    53 1   
    28    14    15 2   
    29    14    16 1   
    30    16    17 1   
    31    16    54 1   
    32    16    55 1   
    33    17    18 1   
    34    17    23 1   
    35    17    56 1   
    36    18    19 1   
    37    18    57 1   
    38    18    58 1   
    39    19    20 2   
    40    19    59 1   
    41    20    21 1   
    42    20    22 1   
    43    21    60 1   
    44    21    61 1   
    45    21    62 1   
    46    22    63 1   
    47    22    64 1   
    48    22    65 1   
    49    23    24 2   
    50    23    25 1   
    51    25    26 1   
    52    25    66 1   
    53    26    27 1   
    54    26    34 1   
    55    26    67 1   
    56    27    28 2   
    57    27    68 1   
    58    28    29 1   
    59    28    69 1   
    60    29    30 2   
    61    29    31 1   
    62    31    32 1   
    63    32    33 1   
    64    32    70 1   
    65    32    71 1   
    66    33    72 1   
    67    33    73 1   
    68    33    74 1   
    69    34    35 1   
    70    34    75 1   
    71    34    76 1   
    72    35    36 1   
    73    35    39 1   
    74    35    77 1   
    75    36    37 1   
    76    36    78 1   
    77    36    79 1   
    78    37    38 1   
    79    37    80 1   
    80    37    81 1   
    81    38    39 1   
    82    38    82 1   
    83    39    40 2   
@<TRIPOS>SUBSTRUCTURE
     1 CY6         1 TEMP              0 ****  ****    0 ROOT
