@<TRIPOS>MOLECULE
CY7
   82    85     1     0     0
SMALL
bcc


@<TRIPOS>ATOM
      1 CAN         -8.4470    -1.9030    -0.9480 ca         1 CY7      -0.211300
      2 CAL         -9.7000    -2.4520    -1.1810 ca         1 CY7      -0.098000
      3 CAK        -10.5120    -2.7670    -0.1040 ca         1 CY7      -0.255300
      4 CAM        -10.0270    -2.5140     1.1710 ca         1 CY7       0.403200
      5 NAZ         -8.8320    -1.9900     1.4050 nb         1 CY7      -0.680000
      6 CBK         -8.0560    -1.6900     0.3680 ca         1 CY7       0.414600
      7 CAV         -6.7260    -1.0990     0.7480 c3         1 CY7       0.088100
      8 OBE         -5.9820    -0.8550    -0.4200 os         1 CY7      -0.315900
      9 CBN         -4.7710    -0.2810    -0.3100 ca         1 CY7       0.138100
     10 CBJ         -4.0950    -0.0020    -1.5000 ca         1 CY7       0.010400
     11 CAR         -2.8460     0.5860    -1.5040 ca         1 CY7      -0.091000
     12 CLA         -4.8540    -0.4070    -3.0030 cl         1 CY7      -0.115400
     13 CAP         -4.1420     0.0390     0.8870 ca         1 CY7      -0.186000
     14 CAO         -2.8910     0.6360     0.8900 ca         1 CY7      -0.098000
     15 CBI         -2.2360     0.9410    -0.3000 ca         1 CY7       0.131400
     16 NBC         -0.9670     1.5130    -0.2980 ne         1 CY7      -0.580100
     17 CBP         -0.7850     2.7650    -0.0890 cd         1 CY7       0.592200
     18 CBR          0.5960     3.2580    -0.0010 ca         1 CY7      -0.176900
     19 CAS          1.6730     2.3790    -0.1620 ca         1 CY7      -0.038000
     20 CBL         -1.7990     3.8010     0.0670 cd         1 CY7      -0.236300
     21 CAJ         -3.1930     3.5780    -0.0810 ch         1 CY7       0.219500
     22 NAD         -4.3390     3.5050    -0.2080 n1         1 CY7      -0.388800
     23 CAQ         -1.4370     5.1000     0.3210 cc         1 CY7       0.144000
     24 NBA         -0.1710     5.4810     0.4320 na         1 CY7      -0.590400
     25 CBQ          0.8730     4.5960     0.2700 ca         1 CY7       0.154600
     26 CAT          2.1850     5.0560     0.3860 ca         1 CY7      -0.265000
     27 CBO          3.2340     4.1780     0.2110 ca         1 CY7       0.145100
     28 OBD          4.5240     4.5120     0.2970 os         1 CY7      -0.330900
     29 CAU          4.8810     5.8510     0.6360 c3         1 CY7       0.145400
     30 CAA          6.3860     5.9280     0.7140 c3         1 CY7      -0.096100
     31 CBM          2.9770     2.8120    -0.0740 ca         1 CY7       0.031600
     32 NBB          4.0840     1.9720    -0.2240 ns         1 CY7      -0.463100
     33 CBH          4.1710     0.8680    -1.0080 c          1 CY7       0.688100
     34 OAG          3.2480     0.4420    -1.6780 o          1 CY7      -0.573100
     35 CAX          5.5300     0.2030    -1.0120 c3         1 CY7      -0.137400
     36 CBT          5.4170    -1.2790    -0.6680 c3         1 CY7       0.016400
     37 CAY          6.7600    -1.9710    -0.8630 c3         1 CY7       0.183800
     38 NBU          6.7350    -3.3870    -0.5730 n3         1 CY7      -0.697600
     39 CAB          6.0510    -4.1520    -1.5930 c3         1 CY7       0.153600
     40 CAC          8.0670    -3.9060    -0.3500 c3         1 CY7       0.153600
     41 SG           4.8140    -1.4100     1.0490 ss         1 CY7      -0.364200
     42 CB           3.8270    -2.9330     0.9830 c3         1 CY7       0.078700
     43 CA           2.7960    -2.9310     2.1040 c3         1 CY7       0.016500
     44 C            1.9410    -4.2220     1.9960 c          1 CY7       0.906600
     45 O            1.9740    -5.0200     2.9500 o          1 CY7      -0.832300
     46 N            3.4590    -2.7070     3.3770 n8         1 CY7      -0.883800
     47 OXT          1.2930    -4.3510     0.9360 o          1 CY7      -0.832300
     48 HAN         -7.7970    -1.6500    -1.7740 ha         1 CY7       0.167000
     49 HAL        -10.0350    -2.6300    -2.1940 ha         1 CY7       0.133000
     50 HAK        -11.4930    -3.1990    -0.2420 ha         1 CY7       0.135000
     51 HAM        -10.6310    -2.7440     2.0420 h4         1 CY7       0.013100
     52 HAV1        -6.8930    -0.1730     1.3100 h1         1 CY7       0.060200
     53 HAV2        -6.2030    -1.7950     1.4150 h1         1 CY7       0.060200
     54 HAP         -4.6170    -0.1690     1.8360 ha         1 CY7       0.138000
     55 HAR         -2.3490     0.7920    -2.4430 ha         1 CY7       0.155000
     56 HAO         -2.4240     0.8800     1.8360 ha         1 CY7       0.143000
     57 HAS          1.4540     1.3400    -0.3500 ha         1 CY7       0.209000
     58 HAQ         -2.1750     5.8800     0.4370 h4         1 CY7       0.149000
     59 HBA          0.0310     6.4510     0.6220 hn         1 CY7       0.445800
     60 HAT          2.3560     6.1030     0.6010 ha         1 CY7       0.129000
     61 HAU1         4.4970     6.5380    -0.1240 h1         1 CY7       0.033200
     62 HAU2         4.4280     6.1220     1.5950 h1         1 CY7       0.033200
     63 HAA1         6.7790     5.2640     1.4840 hc         1 CY7       0.048033
     64 HAA2         6.8480     5.6720    -0.2390 hc         1 CY7       0.048033
     65 HAA3         6.6780     6.9460     0.9670 hc         1 CY7       0.048033
     66 HBB          4.9280     2.2680     0.2420 hn         1 CY7       0.329500
     67 HAX1         5.9440     0.3080    -2.0190 hc         1 CY7       0.052200
     68 HAX2         6.2300     0.6980    -0.3340 hc         1 CY7       0.052200
     69 HBT          4.6590    -1.7200    -1.3190 h1         1 CY7       0.088700
     70 HAY1         7.1100    -1.7710    -1.8930 h1         1 CY7       0.020200
     71 HAY2         7.4840    -1.4970    -0.1950 h1         1 CY7       0.020200
     72 HAB1         6.5390    -4.0930    -2.5780 h1         1 CY7       0.027867
     73 HAB2         6.0140    -5.2030    -1.3030 h1         1 CY7       0.027867
     74 HAB3         5.0200    -3.8170    -1.7130 h1         1 CY7       0.027867
     75 HAC1         8.5470    -3.3700     0.4690 h1         1 CY7       0.027867
     76 HAC2         8.0130    -4.9600    -0.0720 h1         1 CY7       0.027867
     77 HAC3         8.7220    -3.8290    -1.2320 h1         1 CY7       0.027867
     78 HBC1         3.3230    -2.9820     0.0190 h1         1 CY7       0.065200
     79 HBC2         4.4920    -3.7960     1.0580 h1         1 CY7       0.065200
     80 HA           2.1280    -2.0790     1.9310 h1         1 CY7       0.053700
     81 HN1          2.7560    -2.5750     4.0940 hn         1 CY7       0.327800
     82 HN2          3.9380    -3.5590     3.6450 hn         1 CY7       0.327800
@<TRIPOS>BOND
     1     1     2 ar  
     2     1     6 ar  
     3     1    48 1   
     4     2     3 ar  
     5     2    49 1   
     6     3     4 ar  
     7     3    50 1   
     8     4     5 ar  
     9     4    51 1   
    10     5     6 ar  
    11     6     7 1   
    12     7     8 1   
    13     7    52 1   
    14     7    53 1   
    15     8     9 1   
    16     9    10 ar  
    17     9    13 ar  
    18    10    11 ar  
    19    10    12 1   
    20    11    15 ar  
    21    11    55 1   
    22    13    14 ar  
    23    13    54 1   
    24    14    15 ar  
    25    14    56 1   
    26    15    16 1   
    27    16    17 2   
    28    17    18 1   
    29    17    20 1   
    30    18    19 ar  
    31    18    25 ar  
    32    19    31 ar  
    33    19    57 1   
    34    20    21 1   
    35    20    23 2   
    36    21    22 3   
    37    23    24 1   
    38    23    58 1   
    39    24    25 1   
    40    24    59 1   
    41    25    26 ar  
    42    26    27 ar  
    43    26    60 1   
    44    27    28 1   
    45    27    31 ar  
    46    28    29 1   
    47    29    30 1   
    48    29    61 1   
    49    29    62 1   
    50    30    63 1   
    51    30    64 1   
    52    30    65 1   
    53    31    32 1   
    54    32    33 1   
    55    32    66 1   
    56    33    34 2   
    57    33    35 1   
    58    35    36 1   
    59    35    67 1   
    60    35    68 1   
    61    36    37 1   
    62    36    41 1   
    63    36    69 1   
    64    37    38 1   
    65    37    70 1   
    66    37    71 1   
    67    38    39 1   
    68    38    40 1   
    69    39    72 1   
    70    39    73 1   
    71    39    74 1   
    72    40    75 1   
    73    40    76 1   
    74    40    77 1   
    75    41    42 1   
    76    42    43 1   
    77    42    78 1   
    78    42    79 1   
    79    43    44 1   
    80    43    46 1   
    81    43    80 1   
    82    44    45 1   
    83    44    47 1   
    84    46    81 1   
    85    46    82 1   
@<TRIPOS>SUBSTRUCTURE
     1 CY7         1 TEMP              0 ****  ****    0 ROOT
