@<TRIPOS>MOLECULE
CY7
   82    85     1     0     0
SMALL
No Charge or Current Charge


@<TRIPOS>ATOM
      1 CAN         -7.4060    -2.0780     0.5450 ca         1 CY7      -0.128000
      2 CAL         -8.5030    -2.9480     0.6600 ca         1 CY7      -0.080000
      3 CAK         -8.2520    -4.3290     0.6500 ca         1 CY7      -0.172000
      4 CAM         -6.9280    -4.7850     0.5260 ca         1 CY7       0.337900
      5 NAZ         -5.8690    -3.9490     0.4150 nb         1 CY7      -0.680000
      6 CBK         -6.1080    -2.6120     0.4220 ca         1 CY7       0.349300
      7 CAV         -4.8970    -1.6860     0.3010 c3         1 CY7       0.111300
      8 OBE         -5.0660    -0.8060    -0.8310 os         1 CY7      -0.339100
      9 CBN         -4.1310     0.1540    -1.1740 ca         1 CY7       0.138100
     10 CBJ         -4.3830     0.9780    -2.2930 ca         1 CY7       0.102000
     11 CAR         -3.4580     1.9650    -2.6710 ca         1 CY7      -0.073000
     12 ClA         -5.8630     0.7880    -3.2380 cl         1 CY7      -0.207000
     13 CAP         -2.9370     0.3340    -0.4390 ca         1 CY7      -0.168000
     14 CAO         -2.0160     1.3260    -0.8240 ca         1 CY7      -0.080000
     15 CBI         -2.2750     2.1460    -1.9380 ca         1 CY7       0.131400
     16 NBC         -1.3620     3.1420    -2.3270 ne         1 CY7      -0.580100
     17 CBP         -0.9750     4.1340    -1.5540 cd         1 CY7       0.592200
     18 CBR          0.3550     4.0170    -0.9810 ca         1 CY7      -0.176900
     19 CAS          1.2410     2.9440    -1.2410 ca         1 CY7      -0.020000
     20 CBL         -1.8250     5.2530    -1.2750 cd         1 CY7      -0.236300
     21 CAJ         -3.1180     5.3780    -1.8430 ch         1 CY7       0.308700
     22 NAD         -4.1870     5.5100    -2.2920 n1         1 CY7      -0.478000
     23 CAQ         -1.3840     6.2610    -0.4250 cc         1 CY7       0.094000
     24 NBA         -0.1000     6.1180     0.1390 na         1 CY7      -0.784000
     25 CBQ          0.7370     5.0450    -0.1330 ca         1 CY7       0.293000
     26 CAT          1.9980     5.0270     0.4720 ca         1 CY7      -0.247000
     27 CBO          2.8910     3.9640     0.2280 ca         1 CY7       0.145100
     28 OBD          4.1450     3.9140     0.8080 os         1 CY7      -0.354100
     29 CAU          4.6210     4.9280     1.7090 c3         1 CY7       0.168600
     30 CAA          6.0380     4.5260     2.1470 c3         1 CY7      -0.096100
     31 CBM          2.5160     2.9110    -0.6320 ca         1 CY7      -0.061000
     32 NBB          3.4580     1.8620    -0.8420 ns         1 CY7      -0.137000
     33 CBH          3.4060     0.6790    -1.5680 c          1 CY7       0.621100
     34 OAG          2.4370     0.3150    -2.2240 o          1 CY7      -0.573100
     35 CAX          4.6980    -0.1450    -1.5310 c3         1 CY7      -0.137400
     36 CBT          4.5300    -1.4270    -0.6830 c3         1 CY7       0.064300
     37 CAY          5.7700    -2.3640    -0.8110 c3         1 CY7       0.183800
     38 NBU          5.6230    -3.7390    -0.2610 n3         1 CY7      -0.697600
     39 CAB          4.6090    -4.5580    -0.9650 c3         1 CY7       0.153600
     40 CAC          6.9210    -4.4390    -0.1640 c3         1 CY7       0.153600
     41 SG           4.2240    -0.9230     1.0850 ss         1 CY7      -0.460000
     42 CB           3.3830    -2.4450     1.7490 c3         1 CY7       0.126600
     43 CA           2.6310    -2.1760     3.0820 c3         1 CY7       0.016500
     44 C            1.6650    -3.3910     3.3610 c          1 CY7       0.696000
     45 O            2.1540    -4.4490     3.7360 o          1 CY7      -0.727000
     46 N            3.5650    -1.8000     4.2200 n8         1 CY7      -0.994200
     47 OXT          0.4580    -3.2000     3.2930 o          1 CY7      -0.727000
     48 HAN         -7.5540    -1.0010     0.5480 ha         1 CY7       0.149000
     49 HAL         -9.5160    -2.5630     0.7550 ha         1 CY7       0.115000
     50 HAK         -9.0670    -5.0430     0.7360 ha         1 CY7       0.117000
     51 HAM         -6.7070    -5.8520     0.5160 h4         1 CY7       0.013100
     52 HAV1        -4.8080    -1.1060     1.2290 h1         1 CY7       0.060200
     53 HAV2        -3.9860    -2.2870     0.1860 h1         1 CY7       0.060200
     54 HAP         -2.7060    -0.2800     0.4260 ha         1 CY7       0.120000
     55 HAR         -3.6620     2.5930    -3.5330 ha         1 CY7       0.137000
     56 HAO         -1.1010     1.4550    -0.2520 ha         1 CY7       0.125000
     57 HAS          0.9340     2.1500    -1.9150 ha         1 CY7       0.191000
     58 HAQ         -1.9670     7.1450    -0.1620 h4         1 CY7       0.199000
     59 HBA          0.2440     6.8370     0.7760 hn         1 CY7       0.501000
     60 HAT          2.2730     5.8440     1.1300 ha         1 CY7       0.111000
     61 HAU1         4.6560     5.9060     1.2120 h1         1 CY7       0.033200
     62 HAU2         3.9720     5.0010     2.5910 h1         1 CY7       0.033200
     63 HAA1         6.0240     3.5550     2.6560 hc         1 CY7       0.048033
     64 HAA2         6.7060     4.4600     1.2800 hc         1 CY7       0.048033
     65 HAA3         6.4460     5.2720     2.8400 hc         1 CY7       0.048033
     66 HBB          4.3330     2.0060    -0.3530 hn         1 CY7       0.163000
     67 HAX1         4.9410    -0.4400    -2.5590 hc         1 CY7       0.052200
     68 HAX2         5.5210     0.4490    -1.1150 hc         1 CY7       0.052200
     69 HBT          3.6450    -1.9560    -1.0590 h1         1 CY7       0.088700
     70 HAY1         6.0350    -2.4410    -1.8750 h1         1 CY7       0.020200
     71 HAY2         6.6130    -1.8610    -0.3170 h1         1 CY7       0.020200
     72 HAB1         4.8720    -4.6810    -2.0240 h1         1 CY7       0.027867
     73 HAB2         4.5380    -5.5560    -0.5110 h1         1 CY7       0.027867
     74 HAB3         3.6140    -4.1000    -0.9060 h1         1 CY7       0.027867
     75 HAC1         7.6330    -3.8560     0.4360 h1         1 CY7       0.027867
     76 HAC2         6.7990    -5.4190     0.3180 h1         1 CY7       0.027867
     77 HAC3         7.3570    -4.5960    -1.1600 h1         1 CY7       0.027867
     78 HBC1         2.6580    -2.7900     1.0000 h1         1 CY7       0.065200
     79 HBC2         4.1230    -3.2420     1.8950 h1         1 CY7       0.065200
     80 HA           1.9790    -1.3080     2.9070 h1         1 CY7       0.053700
     81 HN1          3.0100    -1.6120     5.0620 hn         1 CY7       0.383000
     82 HN2          4.1110    -2.6310     4.4790 hn         1 CY7       0.383000
@<TRIPOS>BOND
     1     1     2 ar  
     2     1     6 ar  
     3     1    48 1   
     4     2     3 ar  
     5     2    49 1   
     6     3     4 ar  
     7     3    50 1   
     8     4     5 ar  
     9     4    51 1   
    10     5     6 ar  
    11     6     7 1   
    12     7     8 1   
    13     7    52 1   
    14     7    53 1   
    15     8     9 1   
    16     9    10 ar  
    17     9    13 ar  
    18    10    11 ar  
    19    10    12 1   
    20    11    15 ar  
    21    11    55 1   
    22    13    14 ar  
    23    13    54 1   
    24    14    15 ar  
    25    14    56 1   
    26    15    16 1   
    27    16    17 2   
    28    17    18 1   
    29    17    20 1   
    30    18    19 ar  
    31    18    25 ar  
    32    19    31 ar  
    33    19    57 1   
    34    20    21 1   
    35    20    23 2   
    36    21    22 3   
    37    23    24 1   
    38    23    58 1   
    39    24    25 1   
    40    24    59 1   
    41    25    26 ar  
    42    26    27 ar  
    43    26    60 1   
    44    27    28 1   
    45    27    31 ar  
    46    28    29 1   
    47    29    30 1   
    48    29    61 1   
    49    29    62 1   
    50    30    63 1   
    51    30    64 1   
    52    30    65 1   
    53    31    32 1   
    54    32    33 1   
    55    32    66 1   
    56    33    34 2   
    57    33    35 1   
    58    35    36 1   
    59    35    67 1   
    60    35    68 1   
    61    36    37 1   
    62    36    41 1   
    63    36    69 1   
    64    37    38 1   
    65    37    70 1   
    66    37    71 1   
    67    38    39 1   
    68    38    40 1   
    69    39    72 1   
    70    39    73 1   
    71    39    74 1   
    72    40    75 1   
    73    40    76 1   
    74    40    77 1   
    75    41    42 1   
    76    42    43 1   
    77    42    78 1   
    78    42    79 1   
    79    43    44 1   
    80    43    46 1   
    81    43    80 1   
    82    44    45 1   
    83    44    47 1   
    84    46    81 1   
    85    46    82 1   
@<TRIPOS>SUBSTRUCTURE
     1 CY7         1 TEMP              0 ****  ****    0 ROOT
