@<TRIPOS>MOLECULE
CY8
   71    76     1     0     0
SMALL
No Charge or Current Charge


@<TRIPOS>ATOM
      1 O01          2.8690     0.1040    -0.6740 os         1 CY8      -0.450000
      2 O02         -8.2720    -0.8910     0.0250 oh         1 CY8      -0.661000
      3 N03          5.8810    -0.0850     1.3240 n7         1 CY8      -0.844400
      4 C04         -2.5940     0.0280     0.3890 c5         1 CY8      -0.060700
      5 C05         -1.9320     0.9930    -0.6230 c5         1 CY8      -0.060700
      6 C06         -0.6330     1.3530     0.1460 c5         1 CY8      -0.029500
      7 C07         -3.9210    -0.6190    -0.1420 c6         1 CY8       0.009200
      8 C08          2.2600     0.6540     0.5320 c5         1 CY8       0.226200
      9 C09         -0.1700     0.0190     0.7070 c2         1 CY8      -0.101400
     10 C10         -1.3940    -0.8900     0.7900 c5         1 CY8      -0.034200
     11 C11          0.4650     2.0500    -0.6730 c6         1 CY8      -0.062400
     12 C12          3.4210     0.6270     1.6460 c5         1 CY8      -0.075700
     13 C13          1.7400     2.0920     0.1860 c6         1 CY8      -0.078400
     14 C14          1.1210    -0.3540     0.8940 c2         1 CY8      -0.113400
     15 C15         -2.8750     2.1610    -0.9890 c6         1 CY8      -0.029200
     16 C16          4.4580    -0.2940     0.9280 c5         1 CY8       0.123500
     17 C17         -4.8080     0.5010    -0.7430 c2         1 CY8      -0.107400
     18 C18          4.2870     0.2220    -0.5120 c5         1 CY8       0.160300
     19 C19         -4.6400    -1.3240     1.0580 c6         1 CY8      -0.066400
     20 C20         -4.3300     1.7100    -1.1160 c2         1 CY8      -0.217200
     21 C22         -6.2870     0.1510    -0.9460 c6         1 CY8      -0.074200
     22 C23         -6.1020    -1.7300     0.7510 c6         1 CY8      -0.071400
     23 C24          5.1120    -0.6140    -1.5060 c6         1 CY8      -0.068400
     24 C25         -6.9230    -0.5010     0.3040 c6         1 CY8       0.172300
     25 C26          3.9810     2.0090     2.1070 c3         1 CY8      -0.075100
     26 C27          1.4950    -1.7890     1.2760 c3         1 CY8      -0.047900
     27 C28          6.6080    -0.5400    -1.0700 c6         1 CY8      -0.066700
     28 C29          6.7860    -0.8810     0.4470 c6         1 CY8       0.157800
     29 C30          7.5050    -1.4370    -1.9640 c3         1 CY8      -0.087100
     30 H1          -8.7630    -0.0680    -0.1910 ho         1 CY8       0.441000
     31 H2           6.0140    -0.3850     2.2980 hn         1 CY8       0.412000
     32 H4          -2.8970     0.6130     1.2670 hc         1 CY8       0.048700
     33 H5          -1.6960     0.4820    -1.5640 hc         1 CY8       0.061700
     34 H6          -0.8650     2.0310     0.9780 hc         1 CY8       0.053700
     35 H7          -1.5260    -1.3060     1.7960 hc         1 CY8       0.053200
     36 H8          -1.2680    -1.7330     0.1040 hc         1 CY8       0.053200
     37 H9           0.6530     1.5050    -1.6080 hc         1 CY8       0.050200
     38 H10          0.1500     3.0670    -0.9460 hc         1 CY8       0.050200
     39 H11          3.0720     0.1570     2.5710 hc         1 CY8       0.058700
     40 H12          1.5120     2.6420     1.1080 hc         1 CY8       0.048700
     41 H13          2.5190     2.6640    -0.3360 hc         1 CY8       0.048700
     42 H14         -2.8190     2.9420    -0.2190 hc         1 CY8       0.047700
     43 H15         -2.5400     2.6250    -1.9270 hc         1 CY8       0.047700
     44 H16          4.1860    -1.3550     1.0070 h1         1 CY8       0.031700
     45 H17          4.5760     1.2780    -0.6100 h1         1 CY8       0.049700
     46 H18         -4.0700    -2.2090     1.3710 hc         1 CY8       0.042200
     47 H19         -4.6540    -0.6540     1.9290 hc         1 CY8       0.042200
     48 H20         -5.0020     2.4520    -1.5510 ha         1 CY8       0.168000
     49 H24         -6.8550     1.0500    -1.2200 hc         1 CY8       0.049700
     50 H25         -6.3800    -0.5330    -1.8000 hc         1 CY8       0.049700
     51 H26         -6.1310    -2.5120    -0.0200 hc         1 CY8       0.053200
     52 H27         -6.5540    -2.1690     1.6510 hc         1 CY8       0.053200
     53 H28          4.7610    -1.6550    -1.5030 hc         1 CY8       0.051700
     54 H29          4.9850    -0.2250    -2.5250 hc         1 CY8       0.051700
     55 H30         -6.9130     0.2360     1.1210 h1         1 CY8       0.030700
     56 H31          3.2100     2.6050     2.6090 hc         1 CY8       0.037367
     57 H32          4.7920     1.8840     2.8340 hc         1 CY8       0.037367
     58 H33          4.3770     2.5980     1.2710 hc         1 CY8       0.037367
     59 H34          2.0620    -1.8270     2.2120 hc         1 CY8       0.039367
     60 H35          0.6240    -2.4360     1.4210 hc         1 CY8       0.039367
     61 H36          2.1050    -2.2560     0.4950 hc         1 CY8       0.039367
     62 H37          6.9580     0.4900    -1.2240 hc         1 CY8       0.059700
     63 H38          7.8300    -0.6980     0.7450 h1         1 CY8       0.031200
     64 H39          6.5840    -1.9510     0.6040 h1         1 CY8       0.031200
     65 H40          7.4150    -1.1580    -3.0210 hc         1 CY8       0.034700
     66 H41          8.5610    -1.3410    -1.6860 hc         1 CY8       0.034700
     67 H42          7.2300    -2.4940    -1.8720 hc         1 CY8       0.034700
     68 C21         -3.6580    -1.6510    -1.2930 c3         1 CY8      -0.079100
     69 H21         -3.0890    -2.5180    -0.9420 hc         1 CY8       0.036033
     70 H22         -4.5900    -2.0440    -1.7140 hc         1 CY8       0.036033
     71 H23         -3.1050    -1.2030    -2.1260 hc         1 CY8       0.036033
@<TRIPOS>BOND
     1     1     8 1   
     2     1    18 1   
     3     2    24 1   
     4     2    30 1   
     5     3    16 1   
     6     3    28 1   
     7     3    31 1   
     8     4     5 1   
     9     4     7 1   
    10     4    10 1   
    11     4    32 1   
    12     5     6 1   
    13     5    15 1   
    14     5    33 1   
    15     6     9 1   
    16     6    11 1   
    17     6    34 1   
    18     7    17 1   
    19     7    19 1   
    20     7    68 1   
    21     8    12 1   
    22     8    13 1   
    23     8    14 1   
    24     9    10 1   
    25     9    14 2   
    26    10    35 1   
    27    10    36 1   
    28    11    13 1   
    29    11    37 1   
    30    11    38 1   
    31    12    16 1   
    32    12    25 1   
    33    12    39 1   
    34    13    40 1   
    35    13    41 1   
    36    14    26 1   
    37    15    20 1   
    38    15    42 1   
    39    15    43 1   
    40    16    18 1   
    41    16    44 1   
    42    17    20 2   
    43    17    21 1   
    44    18    23 1   
    45    18    45 1   
    46    19    22 1   
    47    19    46 1   
    48    19    47 1   
    49    20    48 1   
    50    21    24 1   
    51    21    49 1   
    52    21    50 1   
    53    22    24 1   
    54    22    51 1   
    55    22    52 1   
    56    23    27 1   
    57    23    53 1   
    58    23    54 1   
    59    24    55 1   
    60    25    56 1   
    61    25    57 1   
    62    25    58 1   
    63    26    59 1   
    64    26    60 1   
    65    26    61 1   
    66    27    28 1   
    67    27    29 1   
    68    27    62 1   
    69    28    63 1   
    70    28    64 1   
    71    29    65 1   
    72    29    66 1   
    73    29    67 1   
    74    68    69 1   
    75    68    70 1   
    76    68    71 1   
@<TRIPOS>SUBSTRUCTURE
     1 CY8         1 TEMP              0 ****  ****    0 ROOT
