@<TRIPOS>MOLECULE
CY8
   71    76     1     0     0
SMALL
abcg2


@<TRIPOS>ATOM
      1 O01          2.8560     0.1390    -0.7410 os         1 CY8      -0.450000
      2 O02         -8.1370    -0.9770    -0.0990 oh         1 CY8      -0.661000
      3 N03          5.8360     0.0200     1.2360 n7         1 CY8      -0.844400
      4 C04         -2.5690     0.0510     0.4320 c5         1 CY8      -0.060700
      5 C05         -1.9520     1.0690    -0.5210 c5         1 CY8      -0.060700
      6 C06         -0.6250     1.3910     0.1580 c5         1 CY8      -0.029500
      7 C07         -3.8420    -0.6040    -0.1220 c6         1 CY8       0.009200
      8 C08          2.2380     0.6440     0.4650 c5         1 CY8       0.226200
      9 C09         -0.1720     0.0420     0.6570 c2         1 CY8      -0.101400
     10 C10         -1.3890    -0.8460     0.8330 c5         1 CY8      -0.034200
     11 C11          0.4590     2.0600    -0.6580 c6         1 CY8      -0.062400
     12 C12          3.3680     0.6220     1.5670 c5         1 CY8      -0.075700
     13 C13          1.7260     2.0580     0.1830 c6         1 CY8      -0.078400
     14 C14          1.1070    -0.3230     0.7780 c2         1 CY8      -0.113400
     15 C15         -2.9040     2.2250    -0.7510 c6         1 CY8      -0.029200
     16 C16          4.4570    -0.1980     0.8690 c5         1 CY8       0.123500
     17 C17         -4.7250     0.4840    -0.7210 c2         1 CY8      -0.107400
     18 C18          4.2500     0.2010    -0.5760 c5         1 CY8       0.160300
     19 C19         -4.6000    -1.2740     1.0420 c6         1 CY8      -0.066400
     20 C20         -4.3000     1.7240    -0.9710 c2         1 CY8      -0.217200
     21 C22         -6.1470     0.0880    -1.0180 c6         1 CY8      -0.074200
     22 C23         -6.0210    -1.7100     0.7030 c6         1 CY8      -0.071400
     23 C24          5.0480    -0.6940    -1.4930 c6         1 CY8      -0.068400
     24 C25         -6.8300    -0.5300     0.2000 c6         1 CY8       0.172300
     25 C26          3.8760     1.9760     2.0530 c3         1 CY8      -0.075100
     26 C27          1.4910    -1.7300     1.1370 c3         1 CY8      -0.047900
     27 C28          6.5210    -0.5870    -1.0710 c6         1 CY8      -0.066700
     28 C29          6.6860    -0.8510     0.4290 c6         1 CY8       0.157800
     29 C30          7.3990    -1.5320    -1.8780 c3         1 CY8      -0.087100
     30 H1          -8.6520    -0.2200    -0.3970 ho         1 CY8       0.441000
     31 H2           5.9780    -0.1980     2.2150 hn         1 CY8       0.412000
     32 H4          -2.8730     0.6160     1.3250 hc         1 CY8       0.048700
     33 H5          -1.7390     0.5850    -1.4850 hc         1 CY8       0.061700
     34 H6          -0.8470     2.0370     1.0230 hc         1 CY8       0.053700
     35 H7          -1.4850    -1.2370     1.8490 hc         1 CY8       0.053200
     36 H8          -1.3100    -1.7150     0.1740 hc         1 CY8       0.053200
     37 H9           0.6150     1.5190    -1.5970 hc         1 CY8       0.050200
     38 H10          0.1780     3.0830    -0.9210 hc         1 CY8       0.050200
     39 H11          2.9940     0.0900     2.4460 hc         1 CY8       0.058700
     40 H12          1.4960     2.5580     1.1280 hc         1 CY8       0.048700
     41 H13          2.5220     2.6390    -0.2880 hc         1 CY8       0.048700
     42 H14         -2.8880     2.9020     0.1140 hc         1 CY8       0.047700
     43 H15         -2.5920     2.8320    -1.6060 hc         1 CY8       0.047700
     44 H16          4.1900    -1.2670     0.9530 h1         1 CY8       0.031700
     45 H17          4.6090     1.2360    -0.7100 h1         1 CY8       0.049700
     46 H18         -4.0240    -2.1330     1.3970 hc         1 CY8       0.042200
     47 H19         -4.6440    -0.5690     1.8790 hc         1 CY8       0.042200
     48 H20         -5.0130     2.4390    -1.3750 ha         1 CY8       0.168000
     49 H24         -6.7110     0.9620    -1.3610 hc         1 CY8       0.049700
     50 H25         -6.1800    -0.6450    -1.8320 hc         1 CY8       0.049700
     51 H26         -6.0170    -2.5000    -0.0550 hc         1 CY8       0.053200
     52 H27         -6.4920    -2.1340     1.5950 hc         1 CY8       0.053200
     53 H28          4.7060    -1.7310    -1.3930 hc         1 CY8       0.051700
     54 H29          4.9370    -0.4110    -2.5430 hc         1 CY8       0.051700
     55 H30         -6.8590     0.2320     0.9960 h1         1 CY8       0.030700
     56 H31          3.0860     2.5490     2.5370 hc         1 CY8       0.037367
     57 H32          4.6600     1.8270     2.7940 hc         1 CY8       0.037367
     58 H33          4.2950     2.5910     1.2560 hc         1 CY8       0.037367
     59 H34          2.1010    -1.7750     2.0430 hc         1 CY8       0.039367
     60 H35          0.6190    -2.3580     1.3060 hc         1 CY8       0.039367
     61 H36          2.0800    -2.1890     0.3410 hc         1 CY8       0.039367
     62 H37          6.8500     0.4410    -1.2620 hc         1 CY8       0.059700
     63 H38          7.7270    -0.6810     0.7130 h1         1 CY8       0.031200
     64 H39          6.4740    -1.9180     0.6130 h1         1 CY8       0.031200
     65 H40          7.2930    -1.3500    -2.9490 hc         1 CY8       0.034700
     66 H41          8.4540    -1.4120    -1.6260 hc         1 CY8       0.034700
     67 H42          7.1290    -2.5740    -1.6920 hc         1 CY8       0.034700
     68 C21         -3.5260    -1.6430    -1.2070 c3         1 CY8      -0.079100
     69 H21         -3.0180    -2.5150    -0.7920 hc         1 CY8       0.036033
     70 H22         -4.4290    -2.0140    -1.6920 hc         1 CY8       0.036033
     71 H23         -2.8900    -1.2240    -1.9880 hc         1 CY8       0.036033
@<TRIPOS>BOND
     1     1     8 1   
     2     1    18 1   
     3     2    24 1   
     4     2    30 1   
     5     3    16 1   
     6     3    28 1   
     7     3    31 1   
     8     4     5 1   
     9     4     7 1   
    10     4    10 1   
    11     4    32 1   
    12     5     6 1   
    13     5    15 1   
    14     5    33 1   
    15     6     9 1   
    16     6    11 1   
    17     6    34 1   
    18     7    17 1   
    19     7    19 1   
    20     7    68 1   
    21     8    12 1   
    22     8    13 1   
    23     8    14 1   
    24     9    10 1   
    25     9    14 2   
    26    10    35 1   
    27    10    36 1   
    28    11    13 1   
    29    11    37 1   
    30    11    38 1   
    31    12    16 1   
    32    12    25 1   
    33    12    39 1   
    34    13    40 1   
    35    13    41 1   
    36    14    26 1   
    37    15    20 1   
    38    15    42 1   
    39    15    43 1   
    40    16    18 1   
    41    16    44 1   
    42    17    20 2   
    43    17    21 1   
    44    18    23 1   
    45    18    45 1   
    46    19    22 1   
    47    19    46 1   
    48    19    47 1   
    49    20    48 1   
    50    21    24 1   
    51    21    49 1   
    52    21    50 1   
    53    22    24 1   
    54    22    51 1   
    55    22    52 1   
    56    23    27 1   
    57    23    53 1   
    58    23    54 1   
    59    24    55 1   
    60    25    56 1   
    61    25    57 1   
    62    25    58 1   
    63    26    59 1   
    64    26    60 1   
    65    26    61 1   
    66    27    28 1   
    67    27    29 1   
    68    27    62 1   
    69    28    63 1   
    70    28    64 1   
    71    29    65 1   
    72    29    66 1   
    73    29    67 1   
    74    68    69 1   
    75    68    70 1   
    76    68    71 1   
@<TRIPOS>SUBSTRUCTURE
     1 CY8         1 TEMP              0 ****  ****    0 ROOT
