@<TRIPOS>MOLECULE
CY9
   74    77     1     0     0
SMALL
abcg2


@<TRIPOS>ATOM
      1 C1         159.8650   -16.4540    31.1420 c          1 CY9       0.567000
      2 C5         157.2230   -14.8230    29.6090 c6         1 CY9      -0.016500
      3 C4         157.6710   -16.2070    30.1240 c5         1 CY9      -0.064700
      4 C3         158.6530   -16.9170    29.1680 c5         1 CY9       0.113700
      5 O1         160.8270   -16.3550    31.8870 o          1 CY9      -0.552000
      6 C6         158.3870   -13.8870    29.7390 c2         1 CY9      -0.115400
      7 C25        156.9650   -18.1050    26.7010 ca         1 CY9      -0.108000
      8 C26        155.7790   -18.1220    25.9810 ca         1 CY9      -0.109500
      9 C27        154.5900   -18.4830    26.6030 ca         1 CY9      -0.109000
     10 C28        154.5990   -18.8340    27.9460 ca         1 CY9      -0.109500
     11 C29        155.7890   -18.8160    28.6620 ca         1 CY9      -0.108000
     12 C24        156.9850   -18.4460    28.0530 ca         1 CY9      -0.082300
     13 C10        158.2620   -18.3660    28.8380 c3         1 CY9      -0.052100
     14 N2         159.9090   -16.8600    29.8710 ns         1 CY9      -0.500900
     15 C9         158.4090   -16.1340    31.4980 c5         1 CY9      -0.109000
     16 C11        156.5790   -14.8810    28.2330 c3         1 CY9      -0.087100
     17 C12        159.0230   -13.3130    28.7240 c2         1 CY9      -0.288000
     18 C7         158.8400   -13.6550    31.1630 c6         1 CY9       0.206500
     19 O7         158.3920   -12.3720    31.5490 oh         1 CY9      -0.656000
     20 C8         158.2790   -14.7260    32.1240 c6         1 CY9      -0.042500
     21 C13        158.9020   -14.5240    33.4730 c2         1 CY9      -0.208200
     22 C14        158.2380   -14.0250    34.5130 c2         1 CY9      -0.233200
     23 C15        158.8230   -13.8050    35.8740 c3         1 CY9      -0.033200
     24 C16        158.5970   -15.0080    36.8110 c3         1 CY9      -0.146700
     25 C22        158.8590   -14.6250    38.2710 c3         1 CY9      -0.087100
     26 C17        159.5170   -16.1510    36.4420 c          1 CY9       0.548100
     27 O17        160.7150   -15.9880    36.3530 o          1 CY9      -0.521100
     28 C18        158.9480   -17.5490    36.1570 c3         1 CY9       0.132200
     29 O18        160.0110   -18.4320    35.9470 oh         1 CY9      -0.650000
     30 C23        158.0870   -18.0490    37.3160 c3         1 CY9      -0.087100
     31 C19        158.1210   -17.3530    34.9060 c2         1 CY9      -0.226200
     32 C20        158.6070   -17.5090    33.6830 c2         1 CY9      -0.203200
     33 C21        157.8540   -17.2590    32.4140 c3         1 CY9       0.223500
     34 O21        156.5020   -16.9070    32.6880 os         1 CY9      -0.457100
     35 C30        155.5720   -17.8640    32.7520 c          1 CY9       0.594100
     36 C31        154.2350   -17.2870    33.1030 c3         1 CY9      -0.157100
     37 O30        155.8000   -19.0300    32.5540 o          1 CY9      -0.479000
     38 H5         156.4400   -14.4770    30.2950 hc         1 CY9       0.065700
     39 H4         156.7640   -16.8100    30.2040 hc         1 CY9       0.071700
     40 H3         158.7490   -16.3660    28.2280 h1         1 CY9       0.066700
     41 H26        155.7830   -17.8550    24.9320 ha         1 CY9       0.114000
     42 H27        153.6650   -18.4940    26.0420 ha         1 CY9       0.114000
     43 H28        153.6790   -19.1240    28.4380 ha         1 CY9       0.114000
     44 H29        155.7870   -19.1000    29.7090 ha         1 CY9       0.115000
     45 H10        159.0780   -18.8210    28.2690 hc         1 CY9       0.057700
     46 H10A       158.1730   -18.9350    29.7660 hc         1 CY9       0.057700
     47 HN2        160.7770   -17.1360    29.4380 hn         1 CY9       0.330500
     48 H11        155.7540   -15.5950    28.2230 hc         1 CY9       0.039700
     49 H11A       156.1810   -13.9030    27.9600 hc         1 CY9       0.039700
     50 H11B       157.2740   -15.1820    27.4480 hc         1 CY9       0.039700
     51 H12        159.8930   -12.6890    28.8860 ha         1 CY9       0.167000
     52 H12A       158.7050   -13.4350    27.6960 ha         1 CY9       0.167000
     53 H7         159.9380   -13.6970    31.2000 h1         1 CY9       0.050700
     54 HO7        158.5870   -12.2670    32.4890 ho         1 CY9       0.447000
     55 H8         157.2080   -14.5280    32.2310 hc         1 CY9       0.071700
     56 H13        159.9590   -14.7490    33.5720 ha         1 CY9       0.202000
     57 H14        157.1720   -13.8310    34.4150 ha         1 CY9       0.168000
     58 H15        159.8920   -13.5920    35.8150 hc         1 CY9       0.057700
     59 H15A       158.3520   -12.9340    36.3360 hc         1 CY9       0.057700
     60 H16        157.5560   -15.3290    36.7230 hc         1 CY9       0.063700
     61 H22        159.8790   -14.2660    38.4060 hc         1 CY9       0.043700
     62 H22A       158.1770   -13.8290    38.5700 hc         1 CY9       0.043700
     63 H22B       158.7040   -15.4660    38.9490 hc         1 CY9       0.043700
     64 HO18       160.8230   -17.9040    35.9500 ho         1 CY9       0.471000
     65 H23        158.6670   -18.1080    38.2370 hc         1 CY9       0.047700
     66 H23A       157.2260   -17.4060    37.4920 hc         1 CY9       0.047700
     67 H23B       157.7080   -19.0450    37.0840 hc         1 CY9       0.047700
     68 H19        157.1150   -16.9780    35.0620 ha         1 CY9       0.177000
     69 H20        159.6220   -17.8630    33.5480 ha         1 CY9       0.210000
     70 H21        157.8810   -18.1880    31.8310 h1         1 CY9       0.075700
     71 H31        154.2580   -16.8930    34.1210 hc         1 CY9       0.070367
     72 H31A       153.9810   -16.4580    32.4440 hc         1 CY9       0.070367
     73 H31B       153.4640   -18.0490    33.0390 hc         1 CY9       0.070367
     74 H25        157.8870   -17.8210    26.2070 ha         1 CY9       0.115000
@<TRIPOS>BOND
     1     1     5 2   
     2     1    14 1   
     3     1    15 1   
     4     2     3 1   
     5     2     6 1   
     6     2    16 1   
     7     2    38 1   
     8     3     4 1   
     9     3    15 1   
    10     3    39 1   
    11     4    13 1   
    12     4    14 1   
    13     4    40 1   
    14     6    17 2   
    15     6    18 1   
    16     7     8 ar  
    17     7    12 ar  
    18     7    74 1   
    19     8     9 ar  
    20     8    41 1   
    21     9    10 ar  
    22     9    42 1   
    23    10    11 ar  
    24    10    43 1   
    25    11    12 ar  
    26    11    44 1   
    27    12    13 1   
    28    13    45 1   
    29    13    46 1   
    30    14    47 1   
    31    15    20 1   
    32    15    33 1   
    33    16    48 1   
    34    16    49 1   
    35    16    50 1   
    36    17    51 1   
    37    17    52 1   
    38    18    19 1   
    39    18    20 1   
    40    18    53 1   
    41    19    54 1   
    42    20    21 1   
    43    20    55 1   
    44    21    22 2   
    45    21    56 1   
    46    22    23 1   
    47    22    57 1   
    48    23    24 1   
    49    23    58 1   
    50    23    59 1   
    51    24    25 1   
    52    24    26 1   
    53    24    60 1   
    54    25    61 1   
    55    25    62 1   
    56    25    63 1   
    57    26    27 2   
    58    26    28 1   
    59    28    29 1   
    60    28    30 1   
    61    28    31 1   
    62    29    64 1   
    63    30    65 1   
    64    30    66 1   
    65    30    67 1   
    66    31    32 2   
    67    31    68 1   
    68    32    33 1   
    69    32    69 1   
    70    33    34 1   
    71    33    70 1   
    72    34    35 1   
    73    35    36 1   
    74    35    37 2   
    75    36    71 1   
    76    36    72 1   
    77    36    73 1   
@<TRIPOS>SUBSTRUCTURE
     1 CY9         1 TEMP              0 ****  ****    0 ROOT
