@<TRIPOS>MOLECULE
CY9
   74    77     1     0     0
SMALL
No Charge or Current Charge


@<TRIPOS>ATOM
      1 C1         159.9330   -16.4260    30.9900 c          1 CY9       0.567000
      2 C5         157.4130   -14.5480    29.4010 c6         1 CY9      -0.016500
      3 C4         157.7640   -16.0280    29.9130 c5         1 CY9      -0.064700
      4 C3         158.7470   -16.8070    28.9650 c5         1 CY9       0.113700
      5 O1         160.9140   -16.4590    31.7140 o          1 CY9      -0.552000
      6 C6         158.5270   -13.5100    29.7080 c2         1 CY9      -0.115400
      7 C25        156.5480   -18.0510    27.0750 ca         1 CY9      -0.108000
      8 C26        155.2290   -18.2860    26.6530 ca         1 CY9      -0.109500
      9 C27        154.3670   -19.0680    27.4400 ca         1 CY9      -0.109000
     10 C28        154.8270   -19.6180    28.6480 ca         1 CY9      -0.109500
     11 C29        156.1470   -19.3830    29.0700 ca         1 CY9      -0.108000
     12 C24        157.0150   -18.5940    28.2890 ca         1 CY9      -0.082300
     13 C10        158.4370   -18.3130    28.7630 c3         1 CY9      -0.052100
     14 N2         160.0170   -16.6150    29.6420 ns         1 CY9      -0.500900
     15 C9         158.4720   -16.0610    31.3340 c5         1 CY9      -0.109000
     16 C11        156.8360   -14.4230    27.9360 c3         1 CY9      -0.087100
     17 C12        159.1000   -12.7000    28.7970 c2         1 CY9      -0.288000
     18 C7         158.9830   -13.5090    31.1710 c6         1 CY9       0.206500
     19 O7         158.6800   -12.2430    31.7640 oh         1 CY9      -0.656000
     20 C8         158.3700   -14.6500    32.0540 c6         1 CY9      -0.042500
     21 C13        159.0160   -14.5660    33.4400 c2         1 CY9      -0.208200
     22 C14        158.3660   -14.1250    34.5300 c2         1 CY9      -0.233200
     23 C15        158.9890   -13.8950    35.8930 c3         1 CY9      -0.033200
     24 C16        158.6660   -15.0330    36.8910 c3         1 CY9      -0.146700
     25 C22        158.9390   -14.6180    38.3570 c3         1 CY9      -0.087100
     26 C17        159.4380   -16.3300    36.5360 c          1 CY9       0.548100
     27 O17        160.6660   -16.3690    36.5860 o          1 CY9      -0.521100
     28 C18        158.6160   -17.6010    36.0980 c3         1 CY9       0.132200
     29 O18        159.5020   -18.7310    35.9440 oh         1 CY9      -0.650000
     30 C23        157.5800   -18.0100    37.1750 c3         1 CY9      -0.087100
     31 C19        157.9360   -17.3470    34.7610 c2         1 CY9      -0.226200
     32 C20        158.4910   -17.5140    33.5420 c2         1 CY9      -0.203200
     33 C21        157.8570   -17.2250    32.1850 c3         1 CY9       0.223500
     34 O21        156.4590   -16.9260    32.3550 os         1 CY9      -0.457100
     35 C30        155.5800   -17.9560    32.5630 c          1 CY9       0.594100
     36 C31        154.1570   -17.4440    32.7200 c3         1 CY9      -0.157100
     37 O30        155.8810   -19.1410    32.6110 o          1 CY9      -0.479000
     38 H5         156.5520   -14.2320    30.0070 hc         1 CY9       0.065700
     39 H4         156.7840   -16.5170    29.9230 hc         1 CY9       0.071700
     40 H3         158.7700   -16.3480    27.9690 h1         1 CY9       0.066700
     41 H26        154.8740   -17.8610    25.7160 ha         1 CY9       0.114000
     42 H27        153.3450   -19.2490    27.1140 ha         1 CY9       0.114000
     43 H28        154.1620   -20.2250    29.2580 ha         1 CY9       0.114000
     44 H29        156.4920   -19.8130    30.0070 ha         1 CY9       0.115000
     45 H10        159.1400   -18.7190    28.0250 hc         1 CY9       0.057700
     46 H10A       158.6440   -18.8710    29.6820 hc         1 CY9       0.057700
     47 HN2        160.9260   -16.8290    29.2480 hn         1 CY9       0.330500
     48 H11        156.0060   -15.1230    27.7850 hc         1 CY9       0.039700
     49 H11A       156.4500   -13.4140    27.7470 hc         1 CY9       0.039700
     50 H11B       157.5930   -14.6410    27.1740 hc         1 CY9       0.039700
     51 H12        159.8890   -12.0040    29.0840 ha         1 CY9       0.167000
     52 H12A       158.8170   -12.6880    27.7460 ha         1 CY9       0.167000
     53 H7         160.0750   -13.6490    31.1680 h1         1 CY9       0.050700
     54 HO7        158.7570   -12.3910    32.7310 ho         1 CY9       0.447000
     55 H8         157.3000   -14.4300    32.1810 hc         1 CY9       0.071700
     56 H13        160.0760   -14.8230    33.5020 ha         1 CY9       0.202000
     57 H14        157.3110   -13.8480    34.4720 ha         1 CY9       0.168000
     58 H15        160.0770   -13.7820    35.8080 hc         1 CY9       0.057700
     59 H15A       158.6180   -12.9430    36.2940 hc         1 CY9       0.057700
     60 H16        157.5920   -15.2300    36.8050 hc         1 CY9       0.063700
     61 H22        159.9960   -14.3650    38.5040 hc         1 CY9       0.043700
     62 H22A       158.3370   -13.7430    38.6320 hc         1 CY9       0.043700
     63 H22B       158.6830   -15.4340    39.0440 hc         1 CY9       0.043700
     64 HO18       160.4150   -18.3710    36.0320 ho         1 CY9       0.471000
     65 H23        158.0680   -18.1580    38.1460 hc         1 CY9       0.047700
     66 H23A       156.7960   -17.2550    37.3010 hc         1 CY9       0.047700
     67 H23B       157.0870   -18.9500    36.8970 hc         1 CY9       0.047700
     68 H19        156.9260   -16.9460    34.8510 ha         1 CY9       0.177000
     69 H20        159.5080   -17.8980    33.4590 ha         1 CY9       0.210000
     70 H21        157.9620   -18.1390    31.5870 h1         1 CY9       0.075700
     71 H31        154.1360   -16.6990    33.5230 hc         1 CY9       0.070367
     72 H31A       153.9010   -16.8440    31.8400 hc         1 CY9       0.070367
     73 H31B       153.4340   -18.2490    32.8890 hc         1 CY9       0.070367
     74 H25        157.2060   -17.4430    26.4590 ha         1 CY9       0.115000
@<TRIPOS>BOND
     1     1     5 2   
     2     1    14 1   
     3     1    15 1   
     4     2     3 1   
     5     2     6 1   
     6     2    16 1   
     7     2    38 1   
     8     3     4 1   
     9     3    15 1   
    10     3    39 1   
    11     4    13 1   
    12     4    14 1   
    13     4    40 1   
    14     6    17 2   
    15     6    18 1   
    16     7     8 ar  
    17     7    12 ar  
    18     7    74 1   
    19     8     9 ar  
    20     8    41 1   
    21     9    10 ar  
    22     9    42 1   
    23    10    11 ar  
    24    10    43 1   
    25    11    12 ar  
    26    11    44 1   
    27    12    13 1   
    28    13    45 1   
    29    13    46 1   
    30    14    47 1   
    31    15    20 1   
    32    15    33 1   
    33    16    48 1   
    34    16    49 1   
    35    16    50 1   
    36    17    51 1   
    37    17    52 1   
    38    18    19 1   
    39    18    20 1   
    40    18    53 1   
    41    19    54 1   
    42    20    21 1   
    43    20    55 1   
    44    21    22 2   
    45    21    56 1   
    46    22    23 1   
    47    22    57 1   
    48    23    24 1   
    49    23    58 1   
    50    23    59 1   
    51    24    25 1   
    52    24    26 1   
    53    24    60 1   
    54    25    61 1   
    55    25    62 1   
    56    25    63 1   
    57    26    27 2   
    58    26    28 1   
    59    28    29 1   
    60    28    30 1   
    61    28    31 1   
    62    29    64 1   
    63    30    65 1   
    64    30    66 1   
    65    30    67 1   
    66    31    32 2   
    67    31    68 1   
    68    32    33 1   
    69    32    69 1   
    70    33    34 1   
    71    33    70 1   
    72    34    35 1   
    73    35    36 1   
    74    35    37 2   
    75    36    71 1   
    76    36    72 1   
    77    36    73 1   
@<TRIPOS>SUBSTRUCTURE
     1 CY9         1 TEMP              0 ****  ****    0 ROOT
