@<TRIPOS>MOLECULE
CYB
   80    83     1     0     0
SMALL
No Charge or Current Charge


@<TRIPOS>ATOM
      1 CHA         36.3660    17.6050    45.0520 ce         1 CYB       0.077800
      2 NA          36.6330    15.2220    44.6660 nd         1 CYB      -0.629300
      3 C1A         36.4780    16.3070    45.5170 cd         1 CYB      -0.028400
      4 C2A         36.4590    15.9420    46.9070 cd         1 CYB      -0.013200
      5 C3A         36.6020    14.5810    46.8940 cc         1 CYB      -0.297800
      6 C4A         36.7040    14.2110    45.5190 cc         1 CYB       0.389600
      7 CMA         36.6540    13.6120    48.0520 c3         1 CYB      -0.006900
      8 CAA         36.3250    16.8540    48.1080 c3         1 CYB      -0.019200
      9 CBA         34.8530    17.2180    48.4160 c3         1 CYB      -0.194400
     10 CGA         34.7870    18.1440    49.6410 c          1 CYB       0.708000
     11 O1A         34.7120    17.6340    50.7480 o          1 CYB      -0.746500
     12 O2A         34.8650    19.3490    49.4570 o          1 CYB      -0.746500
     13 CHB         36.9000    12.7900    45.0540 c3         1 CYB      -0.093700
     14 NB          39.2050    13.1120    44.1320 ns         1 CYB      -0.483900
     15 C1B         38.3770    12.3440    45.0790 c5         1 CYB       0.123900
     16 C2B         38.5770    10.9130    44.5420 c2         1 CYB      -0.105400
     17 C3B         39.3330    10.9680    43.4290 ce         1 CYB      -0.185400
     18 C4B         39.7350    12.3460    43.1430 c          1 CYB       0.544200
     19 CMB         37.9680     9.6960    45.2110 c3         1 CYB      -0.042900
     20 CAB         39.7770     9.8060    42.5520 c3         1 CYB      -0.013200
     21 CBB         38.6450     9.2740    41.6540 c3         1 CYB      -0.085100
     22 OB          40.4140    12.7620    42.2180 o          1 CYB      -0.557000
     23 NC          39.6180    18.7010    40.5500 ns         1 CYB      -0.492900
     24 C1C         40.4470    19.1420    39.5720 c          1 CYB       0.544200
     25 C2C         40.3800    18.1540    38.5120 ce         1 CYB      -0.279200
     26 C3C         39.5350    17.1550    38.8100 c2         1 CYB      -0.120400
     27 C4C         38.9140    17.4460    40.1910 c5         1 CYB       0.131900
     28 CBC         39.5580    14.6150    38.6800 c3         1 CYB      -0.088100
     29 ND          36.6660    17.3550    42.5770 na         1 CYB      -0.080000
     30 C1D         36.8460    18.1360    41.4420 cc         1 CYB      -0.137300
     31 C2D         36.6440    19.4340    41.8310 cd         1 CYB      -0.129300
     32 C3D         36.4780    19.4470    43.2440 cd         1 CYB      -0.028300
     33 C4D         36.4590    18.1490    43.6960 cc         1 CYB      -0.204800
     34 CGD         38.8800    21.2860    43.4920 c          1 CYB       0.710000
     35 O1D         38.9770    22.4390    43.0990 o          1 CYB      -0.744500
     36 O2D         39.5150    20.3540    43.0150 o          1 CYB      -0.744500
     37 HHA         36.2400    18.3610    45.8240 ha         1 CYB       0.208000
     38 HMA1        36.3880    14.0970    48.9980 hc         1 CYB       0.024700
     39 HMA2        35.9520    12.7840    47.9070 hc         1 CYB       0.024700
     40 HMA3        37.6600    13.1910    48.1630 hc         1 CYB       0.024700
     41 HAA1        36.9030    17.7720    47.9500 hc         1 CYB       0.053700
     42 HAA2        36.7690    16.3810    48.9920 hc         1 CYB       0.053700
     43 HBA1        34.3480    16.2670    48.6250 hc         1 CYB       0.023200
     44 HBA2        34.4740    17.7320    47.5240 hc         1 CYB       0.023200
     45 HHB1        36.5050    12.6830    44.0360 hc         1 CYB       0.050200
     46 HHB2        36.2990    12.1160    45.6730 hc         1 CYB       0.050200
     47 HB          39.3190    14.1180    44.1030 hn         1 CYB       0.364500
     48 H1B         38.7600    12.4330    46.1060 h1         1 CYB       0.079700
     49 HMB1        36.8780     9.6890    45.0970 hc         1 CYB       0.042033
     50 HMB2        38.3510     8.7590    44.7890 hc         1 CYB       0.042033
     51 HMB3        38.1920     9.6890    46.2840 hc         1 CYB       0.042033
     52 HAB1        40.1520     8.9850    43.1750 hc         1 CYB       0.046200
     53 HAB2        40.6190    10.1030    41.9140 hc         1 CYB       0.046200
     54 HBB1        38.2790    10.0640    40.9880 hc         1 CYB       0.032033
     55 HBB2        39.0050     8.4430    41.0370 hc         1 CYB       0.032033
     56 HBB3        37.8040     8.9140    42.2590 hc         1 CYB       0.032033
     57 HC          39.5020    19.2540    41.4030 hn         1 CYB       0.421500
     58 H2C         40.9730    18.2520    37.6060 ha         1 CYB       0.188000
     59 H4C         39.1550    16.6470    40.9060 h1         1 CYB       0.078700
     60 HAC1        39.7520    15.9790    37.0190 hc         1 CYB       0.035200
     61 HAC2        38.1410    15.9320    37.7160 hc         1 CYB       0.035200
     62 HBC1        38.9750    14.5000    39.6020 hc         1 CYB       0.035700
     63 HBC2        39.3390    13.7610    38.0290 hc         1 CYB       0.035700
     64 HBC3        40.6240    14.5870    38.9390 hc         1 CYB       0.035700
     65 HD          36.7510    16.3420    42.6200 hn         1 CYB       0.377000
     66 HAD1        35.7990    20.5390    44.9660 hc         1 CYB       0.034700
     67 HAD2        36.0860    21.5490    43.5720 hc         1 CYB       0.034700
     68 HBD1        38.2160    20.1180    45.2100 hc         1 CYB       0.030200
     69 HBD2        37.7770    21.8990    45.2700 hc         1 CYB       0.030200
     70 CMD         36.7400    20.6450    40.9280 c3         1 CYB      -0.017800
     71 CHD         37.3740    17.6090    40.1380 c3         1 CYB      -0.010100
     72 CAC         39.2080    15.9360    37.9700 c3         1 CYB      -0.024200
     73 HHD1        36.9070    16.6440    39.9090 hc         1 CYB       0.047200
     74 HHD2        37.0990    18.2830    39.3180 hc         1 CYB       0.047200
     75 HMD1        36.3120    20.4350    39.9410 hc         1 CYB       0.040700
     76 HMD2        36.1920    21.5040    41.3300 hc         1 CYB       0.040700
     77 HMD3        37.7810    20.9490    40.7780 hc         1 CYB       0.040700
     78 CAD         36.4760    20.6810    44.1150 c3         1 CYB      -0.005100
     79 OC          41.1170    20.1590    39.5990 o          1 CYB      -0.564000
     80 CBD         37.8970    21.0040    44.6480 c3         1 CYB      -0.193400
@<TRIPOS>BOND
     1     1     3 2   
     2     1    33 1   
     3     1    37 1   
     4     2     3 1   
     5     2     6 2   
     6     3     4 1   
     7     4     5 2   
     8     4     8 1   
     9     5     6 1   
    10     5     7 1   
    11     6    13 1   
    12     7    38 1   
    13     7    39 1   
    14     7    40 1   
    15     8     9 1   
    16     8    41 1   
    17     8    42 1   
    18     9    10 1   
    19     9    43 1   
    20     9    44 1   
    21    10    11 1   
    22    10    12 1   
    23    13    15 1   
    24    13    45 1   
    25    13    46 1   
    26    14    15 1   
    27    14    18 1   
    28    14    47 1   
    29    15    16 1   
    30    15    48 1   
    31    16    17 2   
    32    16    19 1   
    33    17    18 1   
    34    17    20 1   
    35    18    22 2   
    36    19    49 1   
    37    19    50 1   
    38    19    51 1   
    39    20    21 1   
    40    20    52 1   
    41    20    53 1   
    42    21    54 1   
    43    21    55 1   
    44    21    56 1   
    45    23    24 1   
    46    23    27 1   
    47    23    57 1   
    48    24    25 1   
    49    24    79 2   
    50    25    26 2   
    51    25    58 1   
    52    26    27 1   
    53    26    72 1   
    54    27    59 1   
    55    27    71 1   
    56    28    62 1   
    57    28    63 1   
    58    28    64 1   
    59    28    72 1   
    60    29    30 1   
    61    29    33 1   
    62    29    65 1   
    63    30    31 2   
    64    30    71 1   
    65    31    32 1   
    66    31    70 1   
    67    32    33 2   
    68    32    78 1   
    69    34    35 1   
    70    34    36 1   
    71    34    80 1   
    72    60    72 1   
    73    61    72 1   
    74    66    78 1   
    75    67    78 1   
    76    68    80 1   
    77    69    80 1   
    78    70    75 1   
    79    70    76 1   
    80    70    77 1   
    81    71    73 1   
    82    71    74 1   
    83    78    80 1   
@<TRIPOS>SUBSTRUCTURE
     1 CYB         1 TEMP              0 ****  ****    0 ROOT
