@<TRIPOS>MOLECULE
CYB
   80    83     1     0     0
SMALL
abcg2


@<TRIPOS>ATOM
      1 CHA         36.4290    17.7780    45.1620 ce         1 CYB       0.077800
      2 NA          36.6290    15.3850    44.7510 nd         1 CYB      -0.629300
      3 C1A         36.4310    16.4800    45.6050 cd         1 CYB      -0.028400
      4 C2A         36.3040    16.0130    46.9740 cd         1 CYB      -0.013200
      5 C3A         36.4380    14.6450    46.9210 cc         1 CYB      -0.297800
      6 C4A         36.6420    14.3160    45.5250 cc         1 CYB       0.389600
      7 CMA         36.3820    13.6600    48.0440 c3         1 CYB      -0.006900
      8 CAA         36.0160    16.8630    48.1690 c3         1 CYB      -0.019200
      9 CBA         34.5130    16.9790    48.4490 c3         1 CYB      -0.194400
     10 CGA         34.1180    17.8530    49.6560 c          1 CYB       0.708000
     11 O1A         32.9380    17.7070    50.0760 o          1 CYB      -0.746500
     12 O2A         34.9700    18.6540    50.1190 o          1 CYB      -0.746500
     13 CHB         36.9610    12.9670    44.9720 c3         1 CYB      -0.093700
     14 NB          39.2070    13.7120    44.2090 ns         1 CYB      -0.483900
     15 C1B         38.4880    12.7200    44.9850 c5         1 CYB       0.123900
     16 C2B         38.8980    11.4300    44.3210 c2         1 CYB      -0.105400
     17 C3B         39.6940    11.6870    43.2710 ce         1 CYB      -0.185400
     18 C4B         39.8700    13.1590    43.1600 c          1 CYB       0.544200
     19 CMB         38.4280    10.1160    44.8360 c3         1 CYB      -0.042900
     20 CAB         40.3020    10.7450    42.2830 c3         1 CYB      -0.013200
     21 CBB         39.3960    10.5100    41.0660 c3         1 CYB      -0.085100
     22 OB          40.4990    13.7750    42.2980 o          1 CYB      -0.557000
     23 NC          39.5520    18.0950    40.6020 ns         1 CYB      -0.492900
     24 C1C         40.4520    18.2820    39.6040 c          1 CYB       0.544200
     25 C2C         40.1610    17.2490    38.5840 ce         1 CYB      -0.279200
     26 C3C         39.1470    16.4800    38.9950 c2         1 CYB      -0.120400
     27 C4C         38.6720    16.9710    40.3430 c5         1 CYB       0.131900
     28 CBC         38.5140    14.0320    39.0990 c3         1 CYB      -0.088100
     29 ND          36.6440    17.3440    42.7570 na         1 CYB      -0.080000
     30 C1D         36.8120    18.0380    41.6060 cc         1 CYB      -0.137300
     31 C2D         36.8230    19.4030    41.9120 cd         1 CYB      -0.129300
     32 C3D         36.6980    19.5140    43.3120 cd         1 CYB      -0.028300
     33 C4D         36.5650    18.2100    43.8300 cc         1 CYB      -0.204800
     34 CGD         39.4290    20.6610    43.4280 c          1 CYB       0.710000
     35 O1D         39.6910    21.7170    42.8010 o          1 CYB      -0.744500
     36 O2D         39.8950    19.5150    43.1610 o          1 CYB      -0.744500
     37 HHA         36.3320    18.5610    45.9050 ha         1 CYB       0.208000
     38 HMA1        36.3040    14.1650    49.0070 hc         1 CYB       0.024700
     39 HMA2        35.5210    12.9910    47.9490 hc         1 CYB       0.024700
     40 HMA3        37.2730    13.0270    48.0680 hc         1 CYB       0.024700
     41 HAA1        36.4300    17.8630    48.0320 hc         1 CYB       0.053700
     42 HAA2        36.5100    16.4440    49.0490 hc         1 CYB       0.053700
     43 HBA1        34.0820    15.9860    48.5910 hc         1 CYB       0.023200
     44 HBA2        34.0130    17.4010    47.5700 hc         1 CYB       0.023200
     45 HHB1        36.6110    12.8950    43.9410 hc         1 CYB       0.050200
     46 HHB2        36.4810    12.1830    45.5590 hc         1 CYB       0.050200
     47 HB          38.9600    14.6910    44.2390 hn         1 CYB       0.364500
     48 H1B         38.8320    12.7280    46.0260 h1         1 CYB       0.079700
     49 HMB1        37.3480    10.0080    44.6920 hc         1 CYB       0.042033
     50 HMB2        38.9200     9.2870    44.3290 hc         1 CYB       0.042033
     51 HMB3        38.6130    10.0320    45.9100 hc         1 CYB       0.042033
     52 HAB1        40.5160     9.7890    42.7660 hc         1 CYB       0.046200
     53 HAB2        41.2570    11.1560    41.9470 hc         1 CYB       0.046200
     54 HBB1        39.1720    11.4510    40.5610 hc         1 CYB       0.032033
     55 HBB2        39.8770     9.8430    40.3480 hc         1 CYB       0.032033
     56 HBB3        38.4500    10.0590    41.3730 hc         1 CYB       0.032033
     57 HC          39.5910    18.6110    41.4850 hn         1 CYB       0.421500
     58 H2C         40.7110    17.1680    37.6570 ha         1 CYB       0.188000
     59 H4C         38.8150    16.1970    41.1040 h1         1 CYB       0.078700
     60 HAC1        39.0050    15.1840    37.3310 hc         1 CYB       0.035200
     61 HAC2        37.4650    15.6010    38.0630 hc         1 CYB       0.035200
     62 HBC1        37.9750    14.1430    40.0410 hc         1 CYB       0.035700
     63 HBC2        38.0370    13.2320    38.5310 hc         1 CYB       0.035700
     64 HBC3        39.5350    13.7260    39.3310 hc         1 CYB       0.035700
     65 HD          36.6350    16.3380    42.8930 hn         1 CYB       0.377000
     66 HAD1        36.3110    20.7930    44.9940 hc         1 CYB       0.034700
     67 HAD2        36.7680    21.6320    43.5190 hc         1 CYB       0.034700
     68 HBD1        38.5950    19.9380    45.2880 hc         1 CYB       0.030200
     69 HBD2        38.6140    21.7050    45.1350 hc         1 CYB       0.030200
     70 CMD         37.0210    20.5170    40.9330 c3         1 CYB      -0.017800
     71 CHD         37.1710    17.3630    40.3340 c3         1 CYB      -0.010100
     72 CAC         38.5030    15.3350    38.2890 c3         1 CYB      -0.024200
     73 HHD1        36.5800    16.4560    40.1900 hc         1 CYB       0.047200
     74 HHD2        36.9850    18.0270    39.4900 hc         1 CYB       0.047200
     75 HMD1        36.7080    20.2220    39.9310 hc         1 CYB       0.040700
     76 HMD2        36.4400    21.3960    41.2190 hc         1 CYB       0.040700
     77 HMD3        38.0670    20.8250    40.8800 hc         1 CYB       0.040700
     78 CAD         36.9640    20.7420    44.1190 c3         1 CYB      -0.005100
     79 OC          41.3330    19.1460    39.5720 o          1 CYB      -0.564000
     80 CBD         38.4370    20.7700    44.6000 c3         1 CYB      -0.193400
@<TRIPOS>BOND
     1     1     3 2   
     2     1    33 1   
     3     1    37 1   
     4     2     3 1   
     5     2     6 2   
     6     3     4 1   
     7     4     5 2   
     8     4     8 1   
     9     5     6 1   
    10     5     7 1   
    11     6    13 1   
    12     7    38 1   
    13     7    39 1   
    14     7    40 1   
    15     8     9 1   
    16     8    41 1   
    17     8    42 1   
    18     9    10 1   
    19     9    43 1   
    20     9    44 1   
    21    10    11 1   
    22    10    12 1   
    23    13    15 1   
    24    13    45 1   
    25    13    46 1   
    26    14    15 1   
    27    14    18 1   
    28    14    47 1   
    29    15    16 1   
    30    15    48 1   
    31    16    17 2   
    32    16    19 1   
    33    17    18 1   
    34    17    20 1   
    35    18    22 2   
    36    19    49 1   
    37    19    50 1   
    38    19    51 1   
    39    20    21 1   
    40    20    52 1   
    41    20    53 1   
    42    21    54 1   
    43    21    55 1   
    44    21    56 1   
    45    23    24 1   
    46    23    27 1   
    47    23    57 1   
    48    24    25 1   
    49    24    79 2   
    50    25    26 2   
    51    25    58 1   
    52    26    27 1   
    53    26    72 1   
    54    27    59 1   
    55    27    71 1   
    56    28    62 1   
    57    28    63 1   
    58    28    64 1   
    59    28    72 1   
    60    29    30 1   
    61    29    33 1   
    62    29    65 1   
    63    30    31 2   
    64    30    71 1   
    65    31    32 1   
    66    31    70 1   
    67    32    33 2   
    68    32    78 1   
    69    34    35 1   
    70    34    36 1   
    71    34    80 1   
    72    60    72 1   
    73    61    72 1   
    74    66    78 1   
    75    67    78 1   
    76    68    80 1   
    77    69    80 1   
    78    70    75 1   
    79    70    76 1   
    80    70    77 1   
    81    71    73 1   
    82    71    74 1   
    83    78    80 1   
@<TRIPOS>SUBSTRUCTURE
     1 CYB         1 TEMP              0 ****  ****    0 ROOT
