@<TRIPOS>MOLECULE
CYC
   81    84     1     0     0
SMALL
No Charge or Current Charge


@<TRIPOS>ATOM
      1 CHA         -2.3270    -0.0290     0.2710 ce         1 CYC       0.066800
      2 NA          -0.4140    -1.5210     0.1400 nd         1 CYC      -0.651300
      3 C1A         -1.7760    -1.2750     0.0280 cd         1 CYC      -0.011400
      4 C2A         -2.5280    -2.4280    -0.3840 cd         1 CYC      -0.012200
      5 C3A         -1.5790    -3.4020    -0.5350 cc         1 CYC      -0.287800
      6 C4A         -0.3290    -2.7960    -0.2140 cc         1 CYC       0.446900
      7 CMA         -1.7530    -4.8460    -0.9400 c3         1 CYC      -0.009900
      8 CAA         -4.0200    -2.5440    -0.6140 c3         1 CYC      -0.021200
      9 CBA         -4.7970    -2.8330     0.6910 c3         1 CYC      -0.200400
     10 CGA         -6.2920    -3.0130     0.3840 c          1 CYC       0.719000
     11 O1A         -7.0050    -2.0220     0.3900 o          1 CYC      -0.740000
     12 O2A         -6.6920    -4.1310     0.0980 o          1 CYC      -0.740000
     13 CHB          0.9570    -3.4820    -0.2340 ce         1 CYC      -0.217600
     14 NB           2.4850    -2.0840     1.0810 ns         1 CYC      -0.398100
     15 C1B          2.1830    -3.1610     0.2970 cd         1 CYC       0.014600
     16 C2B          3.4080    -3.9000     0.1250 cd         1 CYC      -0.034200
     17 C3B          4.3730    -3.2050     0.8400 cc         1 CYC      -0.202400
     18 C4B          3.7770    -2.0190     1.4760 c          1 CYC       0.562200
     19 CMB          3.5910    -5.1640    -0.6790 c3         1 CYC      -0.042900
     20 CAB          5.8410    -3.4970     1.0270 c3         1 CYC      -0.007200
     21 CBB          6.7190    -2.7850    -0.0180 c3         1 CYC      -0.087100
     22 OB           4.2790    -1.1720     2.1980 o          1 CYC      -0.569000
     23 NC           2.7200     1.3710    -0.5550 ns         1 CYC      -0.410100
     24 C1C          3.9990     0.9710    -0.7930 c          1 CYC       0.570000
     25 C2C          4.8710     2.1390    -0.2630 c5         1 CYC      -0.146700
     26 C3C          3.8820     3.3610    -0.0970 c5         1 CYC      -0.028500
     27 C4C          2.5340     2.6610    -0.0920 c2         1 CYC       0.029400
     28 CAC          3.9840     4.4180    -1.2290 c3         1 CYC      -0.068400
     29 CBC          5.3010     5.2220    -1.2380 c3         1 CYC      -0.088100
     30 ND          -0.3060     1.4470     0.3180 na         1 CYC      -0.087000
     31 C1D          0.0540     2.7880     0.3970 cc         1 CYC      -0.091800
     32 C2D         -1.1290     3.4720     0.5470 cd         1 CYC      -0.168300
     33 C3D         -2.2050     2.5400     0.5460 cd         1 CYC      -0.015300
     34 C4D         -1.6820     1.2810     0.3920 cc         1 CYC      -0.216800
     35 CGD         -5.8000     3.6110    -0.4690 c          1 CYC       0.719000
     36 O1D         -6.6570     2.7420    -0.4310 o          1 CYC      -0.739000
     37 O2D         -6.0320     4.7980    -0.2940 o          1 CYC      -0.739000
     38 HHA         -3.4110     0.0180     0.1890 ha         1 CYC       0.230000
     39 HMA1        -1.4220    -5.0030    -1.9730 hc         1 CYC       0.027367
     40 HMA2        -1.1700    -5.5100    -0.2910 hc         1 CYC       0.027367
     41 HMA3        -2.8000    -5.1630    -0.8700 hc         1 CYC       0.027367
     42 HAA1        -4.4070    -1.6290    -1.0780 hc         1 CYC       0.058200
     43 HAA2        -4.2240    -3.3430    -1.3370 hc         1 CYC       0.058200
     44 HBA1        -4.3730    -3.7630     1.0900 hc         1 CYC       0.020200
     45 HBA2        -4.6360    -1.9620     1.3380 hc         1 CYC       0.020200
     46 HHB          0.9400    -4.4050    -0.8050 ha         1 CYC       0.183000
     47 HB           1.8150    -1.3910     1.3880 hn         1 CYC       0.359500
     48 HMB1         3.0990    -6.0130    -0.1890 hc         1 CYC       0.044700
     49 HMB2         3.1610    -5.0580    -1.6820 hc         1 CYC       0.044700
     50 HMB3         4.6490    -5.4170    -0.8030 hc         1 CYC       0.044700
     51 HAB1         6.1620    -3.1890     2.0300 hc         1 CYC       0.042700
     52 HAB2         6.0220    -4.5770     0.9710 hc         1 CYC       0.042700
     53 HBB1         7.7770    -3.0200     0.1460 hc         1 CYC       0.033367
     54 HBB2         6.4470    -3.1030    -1.0310 hc         1 CYC       0.033367
     55 HBB3         6.5930    -1.6970     0.0480 hc         1 CYC       0.033367
     56 HC           1.9690     0.8340    -0.9660 hn         1 CYC       0.349500
     57 H2C          5.6800     2.3120    -0.9790 hc         1 CYC       0.066700
     58 H3C          4.0450     3.8870     0.8520 hc         1 CYC       0.081700
     59 HAC1         3.8610     3.9310    -2.2050 hc         1 CYC       0.047200
     60 HAC2         3.1560     5.1310    -1.1390 hc         1 CYC       0.047200
     61 HBC1         5.2820     5.9750    -2.0350 hc         1 CYC       0.028367
     62 HBC2         5.4450     5.7400    -0.2820 hc         1 CYC       0.028367
     63 HBC3         6.1650     4.5690    -1.4100 hc         1 CYC       0.028367
     64 HD           0.3370     0.6670     0.2400 hn         1 CYC       0.376000
     65 HAD1        -4.2090     2.0720     1.1790 hc         1 CYC       0.059200
     66 HAD2        -3.7880     3.7590     1.3370 hc         1 CYC       0.059200
     67 HBD1        -3.7630     3.9990    -1.1330 hc         1 CYC       0.020200
     68 HBD2        -4.2910     2.2440    -1.2490 hc         1 CYC       0.020200
     69 CMD         -1.2680     4.9720     0.6760 c3         1 CYC      -0.007800
     70 CHD          1.4170     3.3120     0.3080 ce         1 CYC      -0.211200
     71 CMC          5.5600     1.7340     1.0620 c3         1 CYC      -0.077100
     72 HMC1         6.1750     0.8360     0.9300 hc         1 CYC       0.042700
     73 HMC2         6.2160     2.5360     1.4230 hc         1 CYC       0.042700
     74 HMC3         4.8230     1.5270     1.8460 hc         1 CYC       0.042700
     75 HHD          1.5070     4.3540     0.6150 ha         1 CYC       0.190000
     76 HMD1        -2.2550     5.3210     0.3520 hc         1 CYC       0.031367
     77 HMD2        -1.1250     5.2890     1.7150 hc         1 CYC       0.031367
     78 HMD3        -0.5270     5.4940     0.0600 hc         1 CYC       0.031367
     79 CAD         -3.6710     2.8880     0.6810 c3         1 CYC      -0.015100
     80 OC           4.3090    -0.0010    -1.4640 o          1 CYC      -0.538000
     81 CBD         -4.3400     3.1820    -0.6830 c3         1 CYC      -0.201400
@<TRIPOS>BOND
     1     1     3 2   
     2     1    34 1   
     3     1    38 1   
     4     2     3 1   
     5     2     6 2   
     6     3     4 1   
     7     4     5 2   
     8     4     8 1   
     9     5     6 1   
    10     5     7 1   
    11     6    13 1   
    12     7    39 1   
    13     7    40 1   
    14     7    41 1   
    15     8     9 1   
    16     8    42 1   
    17     8    43 1   
    18     9    10 1   
    19     9    44 1   
    20     9    45 1   
    21    10    11 1   
    22    10    12 1   
    23    13    15 2   
    24    13    46 1   
    25    14    15 1   
    26    14    18 1   
    27    14    47 1   
    28    15    16 1   
    29    16    17 2   
    30    16    19 1   
    31    17    18 1   
    32    17    20 1   
    33    18    22 2   
    34    19    48 1   
    35    19    49 1   
    36    19    50 1   
    37    20    21 1   
    38    20    51 1   
    39    20    52 1   
    40    21    53 1   
    41    21    54 1   
    42    21    55 1   
    43    23    24 1   
    44    23    27 1   
    45    23    56 1   
    46    24    25 1   
    47    24    80 2   
    48    25    26 1   
    49    25    57 1   
    50    25    71 1   
    51    26    27 1   
    52    26    28 1   
    53    26    58 1   
    54    27    70 2   
    55    28    29 1   
    56    28    59 1   
    57    28    60 1   
    58    29    61 1   
    59    29    62 1   
    60    29    63 1   
    61    30    31 1   
    62    30    34 1   
    63    30    64 1   
    64    31    32 2   
    65    31    70 1   
    66    32    33 1   
    67    32    69 1   
    68    33    34 2   
    69    33    79 1   
    70    35    36 1   
    71    35    37 1   
    72    35    81 1   
    73    65    79 1   
    74    66    79 1   
    75    67    81 1   
    76    68    81 1   
    77    69    76 1   
    78    69    77 1   
    79    69    78 1   
    80    70    75 1   
    81    71    72 1   
    82    71    73 1   
    83    71    74 1   
    84    79    81 1   
@<TRIPOS>SUBSTRUCTURE
     1 CYC         1 TEMP              0 ****  ****    0 ROOT
