@<TRIPOS>MOLECULE
CYC
   81    84     1     0     0
SMALL
bcc


@<TRIPOS>ATOM
      1 CHA         -2.4540    -0.0380     0.1100 ce         1 CYC       0.116800
      2 NA          -0.5280    -1.5120     0.1020 nd         1 CYC      -0.651300
      3 C1A         -1.8830    -1.2870    -0.0030 cd         1 CYC      -0.011400
      4 C2A         -2.5790    -2.5200    -0.2980 cd         1 CYC      -0.012200
      5 C3A         -1.6090    -3.4800    -0.3860 cc         1 CYC      -0.287800
      6 C4A         -0.3570    -2.8060    -0.1240 cc         1 CYC       0.446900
      7 CMA         -1.7640    -4.9370    -0.6620 c3         1 CYC      -0.009900
      8 CAA         -4.0560    -2.6870    -0.4280 c3         1 CYC      -0.021200
      9 CBA         -4.7290    -2.9170     0.9230 c3         1 CYC      -0.200400
     10 CGA         -6.2540    -3.1250     0.8750 c          1 CYC       0.929600
     11 O1A         -6.8140    -3.0790    -0.2370 o          1 CYC      -0.845300
     12 O2A         -6.8090    -3.3260     1.9760 o          1 CYC      -0.845300
     13 CHB          0.9220    -3.4610    -0.1170 ce         1 CYC      -0.167600
     14 NB           2.2640    -1.6670     0.8330 ns         1 CYC      -0.465100
     15 C1B          2.0900    -2.9200     0.2890 cd         1 CYC       0.014600
     16 C2B          3.4130    -3.5410     0.2470 cd         1 CYC      -0.034200
     17 C3B          4.3070    -2.6670     0.7500 cc         1 CYC      -0.202400
     18 C4B          3.5740    -1.4500     1.1680 c          1 CYC       0.704700
     19 CMB          3.6630    -4.8980    -0.3070 c3         1 CYC      -0.042900
     20 CAB          5.7860    -2.7940     0.8570 c3         1 CYC      -0.007200
     21 CBB          6.4840    -2.4930    -0.4700 c3         1 CYC      -0.087100
     22 OB           4.0100    -0.4520     1.7140 o          1 CYC      -0.644500
     23 NC           2.4720     1.2570    -0.7670 ns         1 CYC      -0.477100
     24 C1C          3.7030     0.9500    -1.2800 c          1 CYC       0.712500
     25 C2C          4.6620     2.0380    -0.8530 c5         1 CYC      -0.146700
     26 C3C          3.8760     2.8640     0.1770 c5         1 CYC      -0.028500
     27 C4C          2.4500     2.3760     0.0340 c2         1 CYC       0.029400
     28 CAC          4.0100     4.3760     0.0000 c3         1 CYC      -0.068400
     29 CBC          5.4360     4.8820     0.1640 c3         1 CYC      -0.088100
     30 ND          -0.4020     1.2480     0.3310 na         1 CYC      -0.138100
     31 C1D         -0.0040     2.5240     0.5070 cc         1 CYC      -0.041100
     32 C2D         -1.1580     3.3250     0.5700 cd         1 CYC      -0.168300
     33 C3D         -2.2640     2.4830     0.4200 cd         1 CYC      -0.015300
     34 C4D         -1.7720     1.1720     0.2810 cc         1 CYC      -0.166100
     35 CGD         -5.5190     3.7730    -1.2980 c          1 CYC       0.929600
     36 O1D         -6.2930     3.6920    -0.3240 o          1 CYC      -0.844300
     37 O2D         -5.8040     4.1880    -2.4400 o          1 CYC      -0.844300
     38 HHA         -3.5340     0.0310     0.0440 ha         1 CYC       0.180000
     39 HMA1        -1.1340    -5.2670    -1.4910 hc         1 CYC       0.027367
     40 HMA2        -1.4910    -5.5430     0.2050 hc         1 CYC       0.027367
     41 HMA3        -2.7930    -5.1840    -0.9180 hc         1 CYC       0.027367
     42 HAA1        -4.4960    -1.8120    -0.9100 hc         1 CYC       0.058200
     43 HAA2        -4.2720    -3.5280    -1.0900 hc         1 CYC       0.058200
     44 HBA1        -4.2760    -3.7850     1.4140 hc         1 CYC       0.020200
     45 HBA2        -4.5190    -2.0730     1.5890 hc         1 CYC       0.020200
     46 HHB          0.9530    -4.4840    -0.4710 ha         1 CYC       0.133000
     47 HB           1.4900    -1.0780     1.0910 hn         1 CYC       0.359500
     48 HMB1         3.0200    -5.6440     0.1620 hc         1 CYC       0.044700
     49 HMB2         3.4590    -4.9280    -1.3790 hc         1 CYC       0.044700
     50 HMB3         4.6970    -5.2030    -0.1570 hc         1 CYC       0.044700
     51 HAB1         6.1530    -2.1120     1.6270 hc         1 CYC       0.042700
     52 HAB2         6.0490    -3.8020     1.1840 hc         1 CYC       0.042700
     53 HBB1         7.5670    -2.5430    -0.3590 hc         1 CYC       0.033367
     54 HBB2         6.1910    -3.2120    -1.2360 hc         1 CYC       0.033367
     55 HBB3         6.2250    -1.4990    -0.8350 hc         1 CYC       0.033367
     56 HC           1.6520     0.7500    -1.0670 hn         1 CYC       0.349500
     57 H2C          4.8230     2.6480    -1.7510 hc         1 CYC       0.066700
     58 H3C          4.2220     2.5940     1.1820 hc         1 CYC       0.081700
     59 HAC1         3.6270     4.6510    -0.9870 hc         1 CYC       0.047200
     60 HAC2         3.3730     4.8810     0.7300 hc         1 CYC       0.047200
     61 HBC1         5.4680     5.9690     0.0910 hc         1 CYC       0.028367
     62 HBC2         5.8480     4.6010     1.1350 hc         1 CYC       0.028367
     63 HBC3         6.1020     4.4870    -0.6040 hc         1 CYC       0.028367
     64 HD           0.1390     0.3930     0.3730 hn         1 CYC       0.325700
     65 HAD1        -4.3480     2.0880     0.6520 hc         1 CYC       0.059200
     66 HAD2        -3.8800     3.7290     1.0060 hc         1 CYC       0.059200
     67 HBD1        -3.3960     4.1130    -1.4370 hc         1 CYC       0.020200
     68 HBD2        -3.8730     2.4770    -1.7830 hc         1 CYC       0.020200
     69 CMD         -1.1660     4.8110     0.7040 c3         1 CYC      -0.007800
     70 CHD          1.3670     2.9540     0.5860 ce         1 CYC      -0.161200
     71 CMC          6.0020     1.4930    -0.3840 c3         1 CYC      -0.077100
     72 HMC1         6.5020     0.9510    -1.1860 hc         1 CYC       0.042700
     73 HMC2         6.6600     2.3040    -0.0750 hc         1 CYC       0.042700
     74 HMC3         5.8770     0.8160     0.4600 hc         1 CYC       0.042700
     75 HHD          1.5360     3.8790     1.1230 ha         1 CYC       0.140000
     76 HMD1        -0.9340     5.3060    -0.2410 hc         1 CYC       0.031367
     77 HMD2        -2.1410     5.1740     1.0290 hc         1 CYC       0.031367
     78 HMD3        -0.4320     5.1580     1.4330 hc         1 CYC       0.031367
     79 CAD         -3.6940     2.8970     0.3230 c3         1 CYC      -0.015100
     80 OC           3.9360    -0.0100    -1.9790 o          1 CYC      -0.613500
     81 CBD         -4.0640     3.3120    -1.1000 c3         1 CYC      -0.201400
@<TRIPOS>BOND
     1     1     3 2   
     2     1    34 1   
     3     1    38 1   
     4     2     3 1   
     5     2     6 2   
     6     3     4 1   
     7     4     5 2   
     8     4     8 1   
     9     5     6 1   
    10     5     7 1   
    11     6    13 1   
    12     7    39 1   
    13     7    40 1   
    14     7    41 1   
    15     8     9 1   
    16     8    42 1   
    17     8    43 1   
    18     9    10 1   
    19     9    44 1   
    20     9    45 1   
    21    10    11 1   
    22    10    12 1   
    23    13    15 2   
    24    13    46 1   
    25    14    15 1   
    26    14    18 1   
    27    14    47 1   
    28    15    16 1   
    29    16    17 2   
    30    16    19 1   
    31    17    18 1   
    32    17    20 1   
    33    18    22 2   
    34    19    48 1   
    35    19    49 1   
    36    19    50 1   
    37    20    21 1   
    38    20    51 1   
    39    20    52 1   
    40    21    53 1   
    41    21    54 1   
    42    21    55 1   
    43    23    24 1   
    44    23    27 1   
    45    23    56 1   
    46    24    25 1   
    47    24    80 2   
    48    25    26 1   
    49    25    57 1   
    50    25    71 1   
    51    26    27 1   
    52    26    28 1   
    53    26    58 1   
    54    27    70 2   
    55    28    29 1   
    56    28    59 1   
    57    28    60 1   
    58    29    61 1   
    59    29    62 1   
    60    29    63 1   
    61    30    31 1   
    62    30    34 1   
    63    30    64 1   
    64    31    32 2   
    65    31    70 1   
    66    32    33 1   
    67    32    69 1   
    68    33    34 2   
    69    33    79 1   
    70    35    36 1   
    71    35    37 1   
    72    35    81 1   
    73    65    79 1   
    74    66    79 1   
    75    67    81 1   
    76    68    81 1   
    77    69    76 1   
    78    69    77 1   
    79    69    78 1   
    80    70    75 1   
    81    71    72 1   
    82    71    73 1   
    83    71    74 1   
    84    79    81 1   
@<TRIPOS>SUBSTRUCTURE
     1 CYC         1 TEMP              0 ****  ****    0 ROOT
