@<TRIPOS>MOLECULE
CYD
   31    30     1     0     0
SMALL
No Charge or Current Charge


@<TRIPOS>ATOM
      1 N            4.3620     1.5930    -1.1840 n8         1 CYD      -0.985200
      2 CA           4.4000     0.3830    -0.2690 c3         1 CYD       0.019500
      3 CB           3.0040    -0.2800    -0.1130 c3         1 CYD       0.089600
      4 SG           1.7810     0.8300     0.7380 ss         1 CYD      -0.396000
      5 C            5.4550    -0.7290    -0.6480 c          1 CYD       0.695000
      6 O            5.3940    -1.2350    -1.7620 o          1 CYD      -0.736500
      7 OXT          6.3510    -0.9750     0.1470 o          1 CYD      -0.736500
      8 C1           0.2940    -0.2950     0.7700 c3         1 CYD      -0.078400
      9 N1          -4.2500    -2.1330    -0.4730 n8         1 CYD      -1.001200
     10 C5          -4.4670    -0.6820    -0.1150 c3         1 CYD       0.011500
     11 C4          -3.1100     0.0480     0.0860 c3         1 CYD      -0.040400
     12 C3          -2.2590    -0.4950     1.2640 c3         1 CYD      -0.175400
     13 C2          -0.9650     0.3100     1.4320 c          1 CYD       0.581100
     14 O1          -0.9500     1.3650     2.0560 o          1 CYD      -0.516100
     15 C6          -5.3950     0.1460    -1.0990 c          1 CYD       0.694000
     16 OT3         -6.3890     0.6910    -0.6380 o          1 CYD      -0.739500
     17 OT4         -5.1450     0.1190    -2.2970 o          1 CYD      -0.739500
     18 H            5.2980     2.0130    -1.2240 hn         1 CYD       0.380000
     19 H2           4.2080     1.2680    -2.1470 hn         1 CYD       0.380000
     20 HA           4.6910     0.7470     0.7260 h1         1 CYD       0.052700
     21 HB2          2.6130    -0.5650    -1.0980 h1         1 CYD       0.054200
     22 HB3          3.1070    -1.1940     0.4860 h1         1 CYD       0.054200
     23 H11          0.0320    -0.5690    -0.2590 h1         1 CYD       0.064200
     24 H12          0.5460    -1.2160     1.3110 h1         1 CYD       0.064200
     25 H5          -4.9770    -0.6780     0.8580 h1         1 CYD       0.031700
     26 H41         -2.5280    -0.0000    -0.8440 hc         1 CYD       0.051200
     27 H42         -3.3150     1.1110     0.2680 hc         1 CYD       0.051200
     28 H31         -2.8480    -0.4300     2.1870 hc         1 CYD       0.057200
     29 H32         -2.0050    -1.5380     1.0450 hc         1 CYD       0.057200
     30 HN11        -5.1620    -2.6020    -0.5310 hn         1 CYD       0.379000
     31 HN12        -3.9040    -2.1770    -1.4390 hn         1 CYD       0.379000
@<TRIPOS>BOND
     1     1     2 1   
     2     1    18 1   
     3     1    19 1   
     4     2     3 1   
     5     2     5 1   
     6     2    20 1   
     7     3     4 1   
     8     3    21 1   
     9     3    22 1   
    10     4     8 1   
    11     5     6 1   
    12     5     7 1   
    13     8    13 1   
    14     8    23 1   
    15     8    24 1   
    16     9    10 1   
    17     9    30 1   
    18     9    31 1   
    19    10    11 1   
    20    10    15 1   
    21    10    25 1   
    22    11    12 1   
    23    11    26 1   
    24    11    27 1   
    25    12    13 1   
    26    12    28 1   
    27    12    29 1   
    28    13    14 2   
    29    15    16 1   
    30    15    17 1   
@<TRIPOS>SUBSTRUCTURE
     1 CYD         1 TEMP              0 ****  ****    0 ROOT
