@<TRIPOS>MOLECULE
CYD
   31    30     1     0     0
SMALL
abcg2


@<TRIPOS>ATOM
      1 N            4.6550     1.2210    -1.1430 n8         1 CYD      -0.985200
      2 CA           4.5060     0.4310     0.0650 c3         1 CYD       0.019500
      3 CB           3.2050    -0.3590     0.0020 c3         1 CYD       0.089600
      4 SG           1.8270     0.7600    -0.3910 ss         1 CYD      -0.396000
      5 C            5.6770    -0.5320     0.4050 c          1 CYD       0.695000
      6 O            6.6510    -0.5470    -0.3690 o          1 CYD      -0.736500
      7 OXT          5.5370    -1.2060     1.4460 o          1 CYD      -0.736500
      8 C1           0.4640    -0.3450     0.0480 c3         1 CYD      -0.078400
      9 N1          -4.5880    -1.6700    -1.0130 n8         1 CYD      -1.001200
     10 C5          -4.5870    -0.7950     0.1500 c3         1 CYD       0.011500
     11 C4          -3.4040     0.1760     0.0740 c3         1 CYD      -0.040400
     12 C3          -2.0710    -0.5480     0.0120 c3         1 CYD      -0.175400
     13 C2          -0.8670     0.3370    -0.1480 c          1 CYD       0.581100
     14 O1          -0.9360     1.5120    -0.4250 o          1 CYD      -0.516100
     15 C6          -5.8930     0.0090     0.3720 c          1 CYD       0.694000
     16 OT3         -5.9980     0.5870     1.4740 o          1 CYD      -0.739500
     17 OT4         -6.7210     0.0350    -0.5600 o          1 CYD      -0.739500
     18 H            5.5300     1.7290    -1.0910 hn         1 CYD       0.380000
     19 H2           4.7720     0.5940    -1.9310 hn         1 CYD       0.380000
     20 HA           4.4170     1.1330     0.9030 h1         1 CYD       0.052700
     21 HB2          3.2630    -1.1430    -0.7600 h1         1 CYD       0.054200
     22 HB3          3.0180    -0.8390     0.9610 h1         1 CYD       0.054200
     23 H11          0.4900    -1.2600    -0.5510 h1         1 CYD       0.064200
     24 H12          0.5390    -0.6610     1.0940 h1         1 CYD       0.064200
     25 H5          -4.4360    -1.4270     1.0330 h1         1 CYD       0.031700
     26 H41         -3.5210     0.8180    -0.8060 hc         1 CYD       0.051200
     27 H42         -3.4320     0.8340     0.9440 hc         1 CYD       0.051200
     28 H31         -1.9280    -1.1750     0.8990 hc         1 CYD       0.057200
     29 H32         -2.0680    -1.2530    -0.8270 hc         1 CYD       0.057200
     30 HN11        -5.2360    -2.4300    -0.8470 hn         1 CYD       0.379000
     31 HN12        -4.9980    -1.1550    -1.7850 hn         1 CYD       0.379000
@<TRIPOS>BOND
     1     1     2 1   
     2     1    18 1   
     3     1    19 1   
     4     2     3 1   
     5     2     5 1   
     6     2    20 1   
     7     3     4 1   
     8     3    21 1   
     9     3    22 1   
    10     4     8 1   
    11     5     6 1   
    12     5     7 1   
    13     8    13 1   
    14     8    23 1   
    15     8    24 1   
    16     9    10 1   
    17     9    30 1   
    18     9    31 1   
    19    10    11 1   
    20    10    15 1   
    21    10    25 1   
    22    11    12 1   
    23    11    26 1   
    24    11    27 1   
    25    12    13 1   
    26    12    28 1   
    27    12    29 1   
    28    13    14 2   
    29    15    16 1   
    30    15    17 1   
@<TRIPOS>SUBSTRUCTURE
     1 CYD         1 TEMP              0 ****  ****    0 ROOT
