@<TRIPOS>MOLECULE
CYE
  124   130     1     0     0
SMALL
No Charge or Current Charge


@<TRIPOS>ATOM
      1 N16         13.2610    -2.4560    -3.0450 n8         1 CYE      -0.995200
      2 C2          12.0230    -3.2290    -3.2490 c3         1 CYE       0.154800
      3 C3          10.7810    -2.4200    -2.8340 c3         1 CYE      -0.099400
      4 C39          9.4680    -3.1950    -3.0630 c3         1 CYE       0.069600
      5 N14          8.2650    -2.4470    -2.6550 na         1 CYE       0.070000
      6 C38          7.4650    -1.7220    -3.5440 cc         1 CYE      -0.172000
      7 C36          6.4200    -1.2500    -2.8050 cd         1 CYE      -0.036400
      8 N13          5.3160    -0.5410    -3.2510 ns         1 CYE      -0.356100
      9 C35          5.0180    -0.0960    -4.5290 c          1 CYE       0.634700
     10 O7           5.7990    -0.1870    -5.4670 o          1 CYE      -0.591100
     11 C34          3.6500     0.4800    -4.6620 cc         1 CYE      -0.180600
     12 C31          2.7090     0.5510    -3.6580 cd         1 CYE      -0.147000
     13 C30          1.5370     1.1300    -4.1730 cd         1 CYE      -0.149200
     14 N11          0.4020     1.3160    -3.4090 nu         1 CYE      -0.220500
     15 C29         -0.8130     1.9640    -3.6580 ce         1 CYE       0.623200
     16 O6          -0.9560     2.8320    -4.6800 oh         1 CYE      -0.596600
     17 C28         -1.8120     2.0090    -2.5860 cc         1 CYE      -0.372900
     18 C25         -1.6650     1.6090    -1.2770 cd         1 CYE      -0.116000
     19 C24         -2.8360     1.8990    -0.5700 cd         1 CYE       0.008600
     20 N9          -2.9490     1.6950     0.7950 ns         1 CYE      -0.393100
     21 C23         -3.9990     2.0200     1.6310 c          1 CYE       0.601100
     22 O5          -5.0850     2.4140     1.2260 o          1 CYE      -0.578100
     23 C41         -3.7140     1.8240     3.1270 c3         1 CYE      -0.146400
     24 C21         -3.5820     3.1730     3.8930 c3         1 CYE      -0.100400
     25 C20         -2.2010     3.8760     3.8040 c3         1 CYE       0.104000
     26 N8          -1.6960     4.1120     2.4450 ns         1 CYE      -0.502900
     27 C22         -2.3100     4.8780     1.4780 c          1 CYE       0.633700
     28 O4          -3.3750     5.4430     1.6760 o          1 CYE      -0.590100
     29 C19         -1.5690     4.9360     0.1900 cc         1 CYE      -0.208600
     30 C16         -0.3060     4.4280    -0.0390 cd         1 CYE      -0.188000
     31 C15          0.0400     4.6730    -1.3780 cd         1 CYE      -0.029400
     32 N6           1.2610     4.3180    -1.9270 ns         1 CYE      -0.366100
     33 C14          1.6610     4.3810    -3.2480 c          1 CYE       0.636700
     34 O3           0.8900     4.6490    -4.1610 o          1 CYE      -0.642100
     35 C13          3.0880     4.0480    -3.4750 cc         1 CYE      -0.254600
     36 C10          3.9580     3.5480    -2.5310 cd         1 CYE      -0.177000
     37 C9           5.1890     3.2930    -3.1540 cd         1 CYE      -0.005400
     38 N4           6.2600     2.7230    -2.4930 ns         1 CYE      -0.367100
     39 C8           7.5260     2.4220    -2.9700 c          1 CYE       0.545600
     40 O2           7.9050     2.7170    -4.1010 o          1 CYE      -0.608100
     41 C7           8.3560     1.6990    -1.9400 cc         1 CYE       0.337000
     42 N2           7.9170     1.3880    -0.7140 nd         1 CYE      -0.728000
     43 C4           8.9210     0.6890    -0.1090 cd         1 CYE       0.370900
     44 N15          8.8110     0.1340     1.1340 ns         1 CYE      -0.467400
     45 C44          9.7160    -0.6330     1.8280 c          1 CYE       0.595100
     46 O8          10.8680    -0.8190     1.4640 o          1 CYE      -0.577100
     47 C45          9.1820    -1.2280     3.1380 c3         1 CYE      -0.145400
     48 C43          8.9850    -2.7680     3.0510 c3         1 CYE      -0.097400
     49 C42          7.6770    -3.2410     2.3660 c3         1 CYE       0.108000
     50 N1           7.4590    -2.7220     1.0120 ns         1 CYE      -0.507900
     51 C1           8.2230    -3.0180    -0.0960 c          1 CYE       0.639700
     52 O1           9.2080    -3.7370    -0.0280 o          1 CYE      -0.597100
     53 C40          7.7280    -2.3940    -1.3550 cc         1 CYE      -0.207600
     54 C37          6.5750    -1.6450    -1.4690 cd         1 CYE      -0.181000
     55 C5          10.0130     0.5940    -0.9280 cc         1 CYE      -0.196000
     56 N3           9.6580     1.2400    -2.0900 na         1 CYE      -0.103500
     57 C6          10.5150     1.4000    -3.2760 c3         1 CYE       0.059900
     58 C11          5.1240     3.6490    -4.4690 cc         1 CYE      -0.174000
     59 N5           3.8260     4.1220    -4.6690 na         1 CYE       0.066000
     60 C12          3.3290     4.6460    -5.9490 c3         1 CYE       0.061900
     61 C17         -0.9820     5.3290    -2.0000 cc         1 CYE      -0.198000
     62 N7          -1.9740     5.4960    -1.0320 na         1 CYE       0.065000
     63 C18         -3.2660     6.1500    -1.2830 c3         1 CYE       0.054900
     64 C26         -3.7530     2.4530    -1.4140 cc         1 CYE      -0.081000
     65 N10         -3.1280     2.5190    -2.6630 na         1 CYE       0.068000
     66 C27         -3.7850     3.0530    -3.8660 c3         1 CYE       0.016900
     67 C32          1.7190     1.4230    -5.4940 cc         1 CYE      -0.133000
     68 N12          3.0270     1.0270    -5.7960 na         1 CYE       0.088000
     69 C33          3.6440     1.1660    -7.1220 c3         1 CYE       0.050900
     70 H55         14.0630    -3.0180    -3.3590 hn         1 CYE       0.394500
     71 H56         13.2660    -1.6550    -3.6870 hn         1 CYE       0.394500
     72 H2          11.9500    -3.5090    -4.3090 h1         1 CYE       0.033700
     73 H3          12.0800    -4.1490    -2.6490 h1         1 CYE       0.033700
     74 H4          10.7460    -1.4860    -3.4070 hc         1 CYE       0.060200
     75 H5          10.8620    -2.1530    -1.7740 hc         1 CYE       0.060200
     76 H43          9.4960    -4.1460    -2.5180 h1         1 CYE       0.075700
     77 H44          9.3750    -3.4380    -4.1290 h1         1 CYE       0.075700
     78 H42          7.6920    -1.6410    -4.5990 h4         1 CYE       0.174000
     79 H40          4.5880    -0.3360    -2.5830 hn         1 CYE       0.318500
     80 H35          2.8320     0.2130    -2.6330 ha         1 CYE       0.140000
     81 H34          0.4260     0.8710    -2.5010 hn         1 CYE       0.378000
     82 H29         -0.7690     1.1880    -0.8300 ha         1 CYE       0.139000
     83 H28         -2.1450     1.3240     1.2850 hn         1 CYE       0.325500
     84 H45         -2.7990     1.2390     3.2770 hc         1 CYE       0.066200
     85 H46         -4.5640     1.2800     3.5560 hc         1 CYE       0.066200
     86 H26         -4.3700     3.8600     3.5620 hc         1 CYE       0.078200
     87 H27         -3.7830     2.9850     4.9550 hc         1 CYE       0.078200
     88 H24         -2.2580     4.8420     4.3250 h1         1 CYE       0.066200
     89 H25         -1.4610     3.2640     4.3360 h1         1 CYE       0.066200
     90 H23         -0.8100     3.7000     2.1840 hn         1 CYE       0.302500
     91 H17          0.3300     3.9270     0.6840 ha         1 CYE       0.129000
     92 H16          1.9880     3.9900    -1.3080 hn         1 CYE       0.325500
     93 H11          3.7370     3.3360    -1.4900 ha         1 CYE       0.128000
     94 H10          6.1430     2.4380    -1.5260 hn         1 CYE       0.348500
     95 H51          7.9210     0.2450     1.5970 hn         1 CYE       0.322500
     96 H52          9.9250    -1.0310     3.9190 hc         1 CYE       0.060200
     97 H53          8.2290    -0.7620     3.4180 hc         1 CYE       0.060200
     98 H49          9.8490    -3.2220     2.5500 hc         1 CYE       0.074700
     99 H50          8.9860    -3.1740     4.0700 hc         1 CYE       0.074700
    100 H47          7.6730    -4.3390     2.3230 h1         1 CYE       0.059200
    101 H48          6.8240    -2.9360     2.9870 h1         1 CYE       0.059200
    102 H1           6.6550    -2.1310     0.8480 hn         1 CYE       0.304500
    103 H41          5.8790    -1.4070    -0.6710 ha         1 CYE       0.122000
    104 H6          10.9750     0.1220    -0.7880 h4         1 CYE       0.198000
    105 H7          10.0550     0.8930    -4.1340 h1         1 CYE       0.068367
    106 H8          10.6350     2.4660    -3.5050 h1         1 CYE       0.068367
    107 H9          11.5020     0.9620    -3.0870 h1         1 CYE       0.068367
    108 H12          5.8560     3.6000    -5.2630 h4         1 CYE       0.181000
    109 H13          2.4860     4.0380    -6.2960 h1         1 CYE       0.062700
    110 H14          2.9960     5.6820    -5.8140 h1         1 CYE       0.062700
    111 H15          4.1270     4.6190    -6.7000 h1         1 CYE       0.062700
    112 H18         -1.0890     5.6980    -3.0110 h4         1 CYE       0.169000
    113 H19         -3.3470     6.4250    -2.3410 h1         1 CYE       0.068033
    114 H20         -4.0810     5.4630    -1.0260 h1         1 CYE       0.068033
    115 H22         -3.3440     7.0540    -0.6670 h1         1 CYE       0.068033
    116 H30         -4.7580     2.8160    -1.2430 h4         1 CYE       0.201000
    117 H21         -0.2090     3.4740    -4.5400 ho         1 CYE       0.531000
    118 H31         -3.3500     4.0270    -4.1190 h1         1 CYE       0.081367
    119 H32         -3.6440     2.3590    -4.7030 h1         1 CYE       0.081367
    120 H33         -4.8590     3.1760    -3.6830 h1         1 CYE       0.081367
    121 H36          1.0550     1.8550    -6.2330 h4         1 CYE       0.170000
    122 H37          4.5610     1.7620    -7.0370 h1         1 CYE       0.077033
    123 H38          3.8900     0.1740    -7.5170 h1         1 CYE       0.077033
    124 H39          2.9500     1.6670    -7.8070 h1         1 CYE       0.077033
@<TRIPOS>BOND
     1     1     2 1   
     2     1    70 1   
     3     1    71 1   
     4     2     3 1   
     5     2    72 1   
     6     2    73 1   
     7     3     4 1   
     8     3    74 1   
     9     3    75 1   
    10     4     5 1   
    11     4    76 1   
    12     4    77 1   
    13     5     6 1   
    14     5    53 1   
    15     6     7 2   
    16     6    78 1   
    17     7     8 1   
    18     7    54 1   
    19     8     9 1   
    20     8    79 1   
    21     9    10 2   
    22     9    11 1   
    23    11    12 2   
    24    11    68 1   
    25    12    13 1   
    26    12    80 1   
    27    13    14 1   
    28    13    67 2   
    29    14    15 2   
    30    14    81 1   
    31    15    16 1   
    32    15    17 1   
    33    16   117 1   
    34    17    18 2   
    35    17    65 1   
    36    18    19 1   
    37    18    82 1   
    38    19    20 1   
    39    19    64 2   
    40    20    21 1   
    41    20    83 1   
    42    21    22 2   
    43    21    23 1   
    44    23    24 1   
    45    23    84 1   
    46    23    85 1   
    47    24    25 1   
    48    24    86 1   
    49    24    87 1   
    50    25    26 1   
    51    25    88 1   
    52    25    89 1   
    53    26    27 1   
    54    26    90 1   
    55    27    28 2   
    56    27    29 1   
    57    29    30 2   
    58    29    62 1   
    59    30    31 1   
    60    30    91 1   
    61    31    32 1   
    62    31    61 2   
    63    32    33 1   
    64    32    92 1   
    65    33    34 2   
    66    33    35 1   
    67    35    36 2   
    68    35    59 1   
    69    36    37 1   
    70    36    93 1   
    71    37    38 1   
    72    37    58 2   
    73    38    39 1   
    74    38    94 1   
    75    39    40 2   
    76    39    41 1   
    77    41    42 2   
    78    41    56 1   
    79    42    43 1   
    80    43    44 1   
    81    43    55 2   
    82    44    45 1   
    83    44    95 1   
    84    45    46 2   
    85    45    47 1   
    86    47    48 1   
    87    47    96 1   
    88    47    97 1   
    89    48    49 1   
    90    48    98 1   
    91    48    99 1   
    92    49    50 1   
    93    49   100 1   
    94    49   101 1   
    95    50    51 1   
    96    50   102 1   
    97    51    52 2   
    98    51    53 1   
    99    53    54 2   
   100    54   103 1   
   101    55    56 1   
   102    55   104 1   
   103    56    57 1   
   104    57   105 1   
   105    57   106 1   
   106    57   107 1   
   107    58    59 1   
   108    58   108 1   
   109    59    60 1   
   110    60   109 1   
   111    60   110 1   
   112    60   111 1   
   113    61    62 1   
   114    61   112 1   
   115    62    63 1   
   116    63   113 1   
   117    63   114 1   
   118    63   115 1   
   119    64    65 1   
   120    64   116 1   
   121    65    66 1   
   122    66   118 1   
   123    66   119 1   
   124    66   120 1   
   125    67    68 1   
   126    67   121 1   
   127    68    69 1   
   128    69   122 1   
   129    69   123 1   
   130    69   124 1   
@<TRIPOS>SUBSTRUCTURE
     1 CYE         1 TEMP              0 ****  ****    0 ROOT
