@<TRIPOS>MOLECULE
CYE
  124   130     1     0     0
SMALL
abcg2


@<TRIPOS>ATOM
      1 N16         13.6260    -1.9420    -3.2570 n8         1 CYE      -0.995200
      2 C2          12.5690    -2.9210    -3.5550 c3         1 CYE       0.154800
      3 C3          11.2270    -2.4410    -3.0130 c3         1 CYE      -0.099400
      4 C39         10.1090    -3.4330    -3.3080 c3         1 CYE       0.069600
      5 N14          8.8160    -2.9850    -2.7910 na         1 CYE       0.070000
      6 C38          7.9320    -2.2770    -3.5570 cc         1 CYE      -0.172000
      7 C36          6.8450    -1.9430    -2.7610 cd         1 CYE      -0.036400
      8 N13          5.6960    -1.2160    -3.0710 ns         1 CYE      -0.356100
      9 C35          5.3220    -0.7550    -4.2930 c          1 CYE       0.634700
     10 O7           6.0150    -0.9030    -5.3020 o          1 CYE      -0.591100
     11 C34          4.0210    -0.0700    -4.3070 cc         1 CYE      -0.180600
     12 C31          3.0850     0.0650    -3.2940 cd         1 CYE      -0.147000
     13 C30          2.0090     0.8090    -3.8150 cd         1 CYE      -0.149200
     14 N11          0.8930     1.1520    -3.0420 nu         1 CYE      -0.220500
     15 C29         -0.1520     1.8870    -3.3760 ce         1 CYE       0.623200
     16 O6          -0.1400     2.3080    -4.6250 oh         1 CYE      -0.596600
     17 C28         -1.1760     2.1650    -2.4280 cc         1 CYE      -0.372900
     18 C25         -1.2110     1.7850    -1.0790 cd         1 CYE      -0.116000
     19 C24         -2.4040     2.2660    -0.5370 cd         1 CYE       0.008600
     20 N9          -2.7820     2.1300     0.7980 ns         1 CYE      -0.393100
     21 C23         -3.9570     2.5530     1.3380 c          1 CYE       0.601100
     22 O5          -4.8520     3.0410     0.6530 o          1 CYE      -0.578100
     23 C41         -4.1050     2.3690     2.8380 c3         1 CYE      -0.146400
     24 C21         -4.6120     3.6450     3.5210 c3         1 CYE      -0.100400
     25 C20         -3.5130     4.6890     3.7590 c3         1 CYE       0.104000
     26 N8          -2.6810     4.9420     2.5950 ns         1 CYE      -0.502900
     27 C22         -3.0680     5.7070     1.5450 c          1 CYE       0.633700
     28 O4          -4.1170     6.3620     1.5590 o          1 CYE      -0.590100
     29 C19         -2.1480     5.6930     0.3980 cc         1 CYE      -0.208600
     30 C16         -0.8520     5.1970     0.3150 cd         1 CYE      -0.188000
     31 C15         -0.4260     5.3400    -1.0220 cd         1 CYE      -0.029400
     32 N6           0.8120     4.8920    -1.4860 ns         1 CYE      -0.366100
     33 C14          1.2420     4.9080    -2.7770 c          1 CYE       0.636700
     34 O3           0.5700     5.4140    -3.6830 o          1 CYE      -0.642100
     35 C13          2.5430     4.2710    -2.9990 cc         1 CYE      -0.254600
     36 C10          3.3880     3.6310    -2.0950 cd         1 CYE      -0.177000
     37 C9           4.5130     3.1810    -2.8120 cd         1 CYE      -0.005400
     38 N4           5.5720     2.4740    -2.2430 ns         1 CYE      -0.367100
     39 C8           6.7100     2.1030    -2.8750 c          1 CYE       0.545600
     40 O2           6.9440     2.3520    -4.0610 o          1 CYE      -0.608100
     41 C7           7.6540     1.3720    -2.0140 cc         1 CYE       0.337000
     42 N2           7.3860     0.9370    -0.7810 nd         1 CYE      -0.728000
     43 C4           8.5140     0.3180    -0.3510 cd         1 CYE       0.370900
     44 N15          8.5390    -0.3090     0.8930 ns         1 CYE      -0.467400
     45 C44          9.5980    -0.9910     1.4010 c          1 CYE       0.595100
     46 O8          10.6890    -1.0120     0.8310 o          1 CYE      -0.577100
     47 C45          9.3710    -1.7050     2.7180 c3         1 CYE      -0.145400
     48 C43          9.9200    -3.1350     2.6990 c3         1 CYE      -0.097400
     49 C42          8.9700    -4.1520     2.0520 c3         1 CYE       0.108000
     50 N1           8.3910    -3.7100     0.7920 ns         1 CYE      -0.507900
     51 C1           9.0330    -3.7630    -0.4000 c          1 CYE       0.639700
     52 O1          10.1330    -4.3130    -0.5240 o          1 CYE      -0.597100
     53 C40          8.3210    -3.1080    -1.5080 cc         1 CYE      -0.207600
     54 C37          7.0880    -2.4700    -1.4790 cd         1 CYE      -0.181000
     55 C5           9.4980     0.3910    -1.3160 cc         1 CYE      -0.196000
     56 N3           8.9280     1.0600    -2.3690 na         1 CYE      -0.103500
     57 C6           9.6220     1.3380    -3.6210 c3         1 CYE       0.059900
     58 C11          4.3340     3.5540    -4.1380 cc         1 CYE      -0.174000
     59 N5           3.1440     4.2120    -4.2390 na         1 CYE       0.066000
     60 C12          2.6420     4.7320    -5.5060 c3         1 CYE       0.061900
     61 C17         -1.4660     5.9340    -1.7240 cc         1 CYE      -0.198000
     62 N7          -2.5000     6.1450    -0.8560 na         1 CYE       0.065000
     63 C18         -3.7830     6.6950    -1.2780 c3         1 CYE       0.054900
     64 C26         -3.0850     2.9330    -1.5570 cc         1 CYE      -0.081000
     65 N10         -2.3400     2.8730    -2.6860 na         1 CYE       0.068000
     66 C27         -2.7600     3.5060    -3.9290 c3         1 CYE       0.016900
     67 C32          2.3060     1.1080    -5.1380 cc         1 CYE      -0.133000
     68 N12          3.5220     0.5740    -5.4220 na         1 CYE       0.088000
     69 C33          4.1650     0.7410    -6.7190 c3         1 CYE       0.050900
     70 H55         14.5190    -2.2870    -3.5950 hn         1 CYE       0.394500
     71 H56         13.4440    -1.0830    -3.7690 hn         1 CYE       0.394500
     72 H2          12.4700    -3.1280    -4.6300 h1         1 CYE       0.033700
     73 H3          12.8400    -3.8660    -3.0750 h1         1 CYE       0.033700
     74 H4          10.9740    -1.4740    -3.4610 hc         1 CYE       0.060200
     75 H5          11.3040    -2.2900    -1.9330 hc         1 CYE       0.060200
     76 H43         10.3340    -4.4030    -2.8720 h1         1 CYE       0.075700
     77 H44          9.9860    -3.5570    -4.3850 h1         1 CYE       0.075700
     78 H42          8.1390    -2.0630    -4.5880 h4         1 CYE       0.174000
     79 H40          5.0900    -1.0300    -2.2900 hn         1 CYE       0.318500
     80 H35          3.1470    -0.3170    -2.2880 ha         1 CYE       0.140000
     81 H34          0.9070     0.7940    -2.0970 hn         1 CYE       0.378000
     82 H29         -0.4530     1.2400    -0.5400 ha         1 CYE       0.139000
     83 H28         -2.0910     1.7440     1.4210 hn         1 CYE       0.325500
     84 H45         -3.1670     2.0320     3.2890 hc         1 CYE       0.066200
     85 H46         -4.8390     1.5680     2.9770 hc         1 CYE       0.066200
     86 H26         -5.4100     4.0710     2.9110 hc         1 CYE       0.078200
     87 H27         -5.0470     3.3890     4.4890 hc         1 CYE       0.078200
     88 H24         -3.9650     5.6280     4.0810 h1         1 CYE       0.066200
     89 H25         -2.8450     4.3510     4.5520 h1         1 CYE       0.066200
     90 H23         -1.8660     4.3620     2.4830 hn         1 CYE       0.302500
     91 H17         -0.2700     4.7680     1.1150 ha         1 CYE       0.129000
     92 H16          1.3960     4.4470    -0.7980 hn         1 CYE       0.325500
     93 H11          3.2250     3.4870    -1.0390 ha         1 CYE       0.128000
     94 H10          5.4900     2.2100    -1.2720 hn         1 CYE       0.348500
     95 H51          7.6580    -0.3440     1.3850 hn         1 CYE       0.322500
     96 H52          9.9080    -1.1250     3.4720 hc         1 CYE       0.060200
     97 H53          8.3150    -1.6940     2.9960 hc         1 CYE       0.060200
     98 H49         10.8770    -3.1300     2.1770 hc         1 CYE       0.074700
     99 H50         10.1100    -3.4650     3.7210 hc         1 CYE       0.074700
    100 H47          9.4960    -5.0920     1.8840 h1         1 CYE       0.059200
    101 H48          8.1350    -4.3550     2.7240 h1         1 CYE       0.059200
    102 H1           7.5180    -3.2120     0.8420 hn         1 CYE       0.304500
    103 H41          6.4290    -2.3640    -0.6330 ha         1 CYE       0.122000
    104 H6          10.4950     0.0090    -1.3550 h4         1 CYE       0.198000
    105 H7           9.2170     0.7230    -4.4210 h1         1 CYE       0.068367
    106 H8           9.5140     2.3810    -3.8880 h1         1 CYE       0.068367
    107 H9          10.6710     1.0990    -3.4750 h1         1 CYE       0.068367
    108 H12          4.9540     3.3890    -4.9970 h4         1 CYE       0.181000
    109 H13          1.6640     4.3180    -5.7260 h1         1 CYE       0.062700
    110 H14          2.5630     5.8210    -5.4720 h1         1 CYE       0.062700
    111 H15          3.3460     4.4420    -6.2820 h1         1 CYE       0.062700
    112 H18         -1.5490     6.1980    -2.7600 h4         1 CYE       0.169000
    113 H19         -3.7530     6.8100    -2.3600 h1         1 CYE       0.068033
    114 H20         -4.5900     6.0170    -1.0080 h1         1 CYE       0.068033
    115 H22         -3.9660     7.6600    -0.8110 h1         1 CYE       0.068033
    116 H30         -4.0220     3.4470    -1.5390 h4         1 CYE       0.201000
    117 H21         -0.8780     2.8900    -4.8610 ho         1 CYE       0.531000
    118 H31         -2.0640     4.3010    -4.2070 h1         1 CYE       0.081367
    119 H32         -2.8740     2.7700    -4.7250 h1         1 CYE       0.081367
    120 H33         -3.7260     3.9690    -3.7570 h1         1 CYE       0.081367
    121 H36          1.7630     1.6600    -5.8790 h4         1 CYE       0.170000
    122 H37          5.1140     1.2560    -6.6020 h1         1 CYE       0.077033
    123 H38          4.3420    -0.2250    -7.1840 h1         1 CYE       0.077033
    124 H39          3.5010     1.3360    -7.3420 h1         1 CYE       0.077033
@<TRIPOS>BOND
     1     1     2 1   
     2     1    70 1   
     3     1    71 1   
     4     2     3 1   
     5     2    72 1   
     6     2    73 1   
     7     3     4 1   
     8     3    74 1   
     9     3    75 1   
    10     4     5 1   
    11     4    76 1   
    12     4    77 1   
    13     5     6 1   
    14     5    53 1   
    15     6     7 2   
    16     6    78 1   
    17     7     8 1   
    18     7    54 1   
    19     8     9 1   
    20     8    79 1   
    21     9    10 2   
    22     9    11 1   
    23    11    12 2   
    24    11    68 1   
    25    12    13 1   
    26    12    80 1   
    27    13    14 1   
    28    13    67 2   
    29    14    15 2   
    30    14    81 1   
    31    15    16 1   
    32    15    17 1   
    33    16   117 1   
    34    17    18 2   
    35    17    65 1   
    36    18    19 1   
    37    18    82 1   
    38    19    20 1   
    39    19    64 2   
    40    20    21 1   
    41    20    83 1   
    42    21    22 2   
    43    21    23 1   
    44    23    24 1   
    45    23    84 1   
    46    23    85 1   
    47    24    25 1   
    48    24    86 1   
    49    24    87 1   
    50    25    26 1   
    51    25    88 1   
    52    25    89 1   
    53    26    27 1   
    54    26    90 1   
    55    27    28 2   
    56    27    29 1   
    57    29    30 2   
    58    29    62 1   
    59    30    31 1   
    60    30    91 1   
    61    31    32 1   
    62    31    61 2   
    63    32    33 1   
    64    32    92 1   
    65    33    34 2   
    66    33    35 1   
    67    35    36 2   
    68    35    59 1   
    69    36    37 1   
    70    36    93 1   
    71    37    38 1   
    72    37    58 2   
    73    38    39 1   
    74    38    94 1   
    75    39    40 2   
    76    39    41 1   
    77    41    42 2   
    78    41    56 1   
    79    42    43 1   
    80    43    44 1   
    81    43    55 2   
    82    44    45 1   
    83    44    95 1   
    84    45    46 2   
    85    45    47 1   
    86    47    48 1   
    87    47    96 1   
    88    47    97 1   
    89    48    49 1   
    90    48    98 1   
    91    48    99 1   
    92    49    50 1   
    93    49   100 1   
    94    49   101 1   
    95    50    51 1   
    96    50   102 1   
    97    51    52 2   
    98    51    53 1   
    99    53    54 2   
   100    54   103 1   
   101    55    56 1   
   102    55   104 1   
   103    56    57 1   
   104    57   105 1   
   105    57   106 1   
   106    57   107 1   
   107    58    59 1   
   108    58   108 1   
   109    59    60 1   
   110    60   109 1   
   111    60   110 1   
   112    60   111 1   
   113    61    62 1   
   114    61   112 1   
   115    62    63 1   
   116    63   113 1   
   117    63   114 1   
   118    63   115 1   
   119    64    65 1   
   120    64   116 1   
   121    65    66 1   
   122    66   118 1   
   123    66   119 1   
   124    66   120 1   
   125    67    68 1   
   126    67   121 1   
   127    68    69 1   
   128    69   122 1   
   129    69   123 1   
   130    69   124 1   
@<TRIPOS>SUBSTRUCTURE
     1 CYE         1 TEMP              0 ****  ****    0 ROOT
