@<TRIPOS>MOLECULE
CYF
   57    60     1     0     0
SMALL
abcg2


@<TRIPOS>ATOM
      1 C1           3.2580     1.1250    -5.5030 ca         1 CYF       0.108000
      2 O1           4.2660     1.7680    -6.1240 oh         1 CYF      -0.253500
      3 C2           1.9730     1.6180    -5.6840 ca         1 CYF      -0.230000
      4 C3           0.9060     0.9860    -5.0590 ca         1 CYF       0.115500
      5 O2          -0.3180     1.5330    -5.2910 os         1 CYF      -0.153000
      6 C4          -1.4360     0.8690    -4.8900 ca         1 CYF       0.115500
      7 C5          -2.6390     1.3890    -5.3560 ca         1 CYF      -0.230000
      8 C6          -3.8310     0.7710    -5.0050 ca         1 CYF       0.108000
      9 O3          -5.0290     1.2220    -5.4250 oh         1 CYF      -0.253500
     10 C7          -3.8090    -0.3660    -4.1940 ca         1 CYF      -0.221000
     11 C8          -2.5980    -0.8540    -3.7440 ca         1 CYF      -0.041000
     12 C9          -1.3860    -0.2510    -4.0740 ca         1 CYF      -0.151500
     13 C10         -0.0800    -0.7760    -3.5340 c6         1 CYF       0.031000
     14 C11          1.0790    -0.1270    -4.2480 ca         1 CYF      -0.151500
     15 C12          2.3770    -0.6030    -4.0940 ca         1 CYF      -0.041000
     16 C13          3.4620    -0.0010    -4.7040 ca         1 CYF      -0.221000
     17 C14          0.0230    -0.5470    -2.0330 ca         1 CYF      -0.026000
     18 C15          0.0930     0.7690    -1.5750 ca         1 CYF      -0.115000
     19 C16          0.2180     1.0700    -0.2360 ca         1 CYF      -0.166000
     20 C17          0.3100     0.0410     0.7040 ca         1 CYF      -0.036000
     21 C18          0.2750    -1.2740     0.2600 ca         1 CYF      -0.093000
     22 C19          0.1070    -1.5770    -1.0960 ca         1 CYF      -0.080000
     23 C20          0.0220    -3.0600    -1.4490 c2         1 CYF       0.368000
     24 O4          -0.8510    -3.3980    -2.2740 o          1 CYF      -0.536500
     25 O5           0.8150    -3.8120    -0.8560 o          1 CYF      -0.536500
     26 NL           0.4550     0.4250     2.0450 nu         1 CYF      -0.698000
     27 CL           0.4290    -0.3330     3.1640 cl         1 CYF       1.981000
     28 OL           0.2800    -1.5400     3.1880 o          1 CYF      -0.710000
     29 CAL          0.6140     0.4740     4.4330 c3         1 CYF      -1.045000
     30 SG           0.4220    -0.6180     5.8590 ss         1 CYF       0.186000
     31 CB           0.6490     0.6150     7.1740 c3         1 CYF      -0.275000
     32 CA           0.0680     0.0750     8.4910 c3         1 CYF      -0.027000
     33 N           -1.3670    -0.1090     8.5030 n2         1 CYF      -0.470000
     34 C            0.4410     1.0670     9.5890 c2         1 CYF       0.289000
     35 NT           1.5120     0.7360    10.3190 nt         1 CYF      -0.445000
     36 HO1          5.1070     1.3430    -5.9240 ho         1 CYF       0.220000
     37 HC2          1.8010     2.4860    -6.3080 ha         1 CYF       0.145000
     38 H5          -2.6320     2.2650    -5.9950 ha         1 CYF       0.145000
     39 HO3         -4.9210     2.0060    -5.9750 ho         1 CYF       0.220000
     40 H7          -4.7370    -0.8550    -3.9250 ha         1 CYF       0.139000
     41 H8          -2.5740    -1.7340    -3.1120 ha         1 CYF       0.171000
     42 H10         -0.0440    -1.8490    -3.7180 hc         1 CYF       0.169000
     43 H12          2.5430    -1.4690    -3.4630 ha         1 CYF       0.171000
     44 H13          4.4590    -0.4010    -4.5590 ha         1 CYF       0.139000
     45 H15          0.0520     1.5890    -2.2830 ha         1 CYF       0.131000
     46 H16          0.2570     2.1050     0.0830 ha         1 CYF       0.114000
     47 H18          0.3670    -2.0870     0.9600 ha         1 CYF       0.177000
     48 HNL          0.5620     1.4190     2.1870 hn         1 CYF       0.263000
     49 HAL3        -0.1180     1.2840     4.4760 h2         1 CYF       0.172500
     50 HAL2         1.6060     0.9350     4.4340 h2         1 CYF       0.172500
     51 HB3          0.1280     1.5350     6.8990 h1         1 CYF       0.088000
     52 HB2          1.7110     0.8440     7.2800 h1         1 CYF       0.088000
     53 HA           0.5340    -0.8920     8.7060 h1         1 CYF       0.084000
     54 H           -1.8230     0.7680     8.2820 hn         1 CYF       0.073000
     55 HNT1         1.8580     1.3550    11.0340 hn         1 CYF       0.209000
     56 HNT2         1.9910    -0.1390    10.1940 hn         1 CYF       0.209000
     57 O           -0.1900     2.1020     9.7420 o          1 CYF      -0.391000
@<TRIPOS>BOND
     1     1     2 1   
     2     1     3 1   
     3     1    16 1   
     4     2    36 1   
     5     3     4 1   
     6     3    37 1   
     7     4     5 1   
     8     4    14 1   
     9     5     6 1   
    10     6     7 1   
    11     6    12 1   
    12     7     8 1   
    13     7    38 1   
    14     8     9 1   
    15     8    10 1   
    16     9    39 1   
    17    10    11 1   
    18    10    40 1   
    19    11    12 1   
    20    11    41 1   
    21    12    13 1   
    22    13    14 1   
    23    13    17 1   
    24    13    42 1   
    25    14    15 1   
    26    15    16 1   
    27    15    43 1   
    28    16    44 1   
    29    17    18 1   
    30    17    22 1   
    31    18    19 1   
    32    18    45 1   
    33    19    20 1   
    34    19    46 1   
    35    20    21 1   
    36    20    26 1   
    37    21    22 1   
    38    21    47 1   
    39    22    23 1   
    40    23    24 1   
    41    23    25 1   
    42    26    27 1   
    43    26    48 1   
    44    27    28 1   
    45    27    29 1   
    46    29    30 1   
    47    29    49 1   
    48    29    50 1   
    49    30    31 1   
    50    31    32 1   
    51    31    51 1   
    52    31    52 1   
    53    32    33 1   
    54    32    34 1   
    55    32    53 1   
    56    33    54 1   
    57    34    35 1   
    58    34    57 1   
    59    35    55 1   
    60    35    56 1   
@<TRIPOS>SUBSTRUCTURE
     1 CYF         1 TEMP              0 ****  ****    0 ROOT
