@<TRIPOS>MOLECULE
CYF
   57    60     1     0     0
SMALL
No Charge or Current Charge


@<TRIPOS>ATOM
      1 C1           3.5010     1.4140    -4.9270 ca         1 CYF       0.108000
      2 O1           4.6200     2.0720    -5.3430 oh         1 CYF      -0.253500
      3 C2           2.2410     2.0020    -5.0980 ca         1 CYF      -0.230000
      4 C3           1.0850     1.3290    -4.6720 ca         1 CYF       0.115500
      5 O2          -0.1350     1.9330    -4.8630 os         1 CYF      -0.153000
      6 C4          -1.3260     1.3070    -4.5840 ca         1 CYF       0.115500
      7 C5          -2.5220     1.9600    -4.9230 ca         1 CYF      -0.230000
      8 C6          -3.7560     1.3480    -4.6610 ca         1 CYF       0.108000
      9 O3          -4.9170     1.9800    -4.9910 oh         1 CYF      -0.253500
     10 C7          -3.7960     0.0820    -4.0590 ca         1 CYF      -0.221000
     11 C8          -2.6020    -0.5750    -3.7140 ca         1 CYF      -0.041000
     12 C9          -1.3580     0.0360    -3.9750 ca         1 CYF      -0.151500
     13 C10         -0.0640    -0.6830    -3.5830 c6         1 CYF       0.031000
     14 C11          1.1850     0.0590    -4.0680 ca         1 CYF      -0.151500
     15 C12          2.4550    -0.5290    -3.9000 ca         1 CYF      -0.041000
     16 C13          3.6090     0.1490    -4.3300 ca         1 CYF      -0.221000
     17 C14          0.0000    -0.9000    -2.0560 ca         1 CYF      -0.026000
     18 C15         -0.0150     0.2390    -1.2250 ca         1 CYF      -0.115000
     19 C16          0.0760     0.1190     0.1710 ca         1 CYF      -0.166000
     20 C17          0.1790    -1.1460     0.7690 ca         1 CYF      -0.036000
     21 C18          0.2170    -2.2910    -0.0530 ca         1 CYF      -0.093000
     22 C19          0.1180    -2.1870    -1.4610 ca         1 CYF      -0.080000
     23 C20          0.1540    -3.3510    -2.2130 c          1 CYF       0.368000
     24 O4          -0.8370    -3.7260    -2.8300 o          1 CYF      -0.536500
     25 O5           1.1420    -4.0760    -2.1900 o          1 CYF      -0.536500
     26 NL           0.2920    -1.2310     2.1890 nu         1 CYF      -0.698000
     27 Cl          -1.0390    -2.1070     3.0920 cl         1 CYF       1.981000
     28 OL           0.7740    -1.6690     3.2850 o          1 CYF      -0.710000
     29 CAL         -0.4280    -0.6180     4.2220 c3         1 CYF      -1.045000
     30 SG           0.0190    -1.0520     5.9750 ss         1 CYF       0.186000
     31 CB           0.0820     0.6530     6.6630 c3         1 CYF      -0.275000
     32 CA           0.5560     0.6650     8.1360 c3         1 CYF      -0.027000
     33 N           -0.4470     0.0110     8.9860 n2         1 CYF      -0.470000
     34 C            0.8170     2.0730     8.6800 c          1 CYF       0.289000
     35 NT           1.9720     2.2950     9.4290 nt         1 CYF      -0.445000
     36 HO1          5.3950     1.5160    -5.1460 ho         1 CYF       0.220000
     37 HC2          2.1560     2.9810    -5.5630 ha         1 CYF       0.145000
     38 H5          -2.4850     2.9400    -5.3920 ha         1 CYF       0.145000
     39 HO3         -4.6970     2.8380    -5.3950 ho         1 CYF       0.220000
     40 H7          -4.7540    -0.3920    -3.8550 ha         1 CYF       0.139000
     41 H8          -2.6410    -1.5560    -3.2430 ha         1 CYF       0.171000
     42 H10         -0.0720    -1.6470    -4.1080 hc         1 CYF       0.169000
     43 H12          2.5470    -1.5090    -3.4320 ha         1 CYF       0.171000
     44 H13          4.5860    -0.3110    -4.1950 ha         1 CYF       0.139000
     45 H15         -0.0900     1.2300    -1.6700 ha         1 CYF       0.131000
     46 H16          0.0680     1.0150     0.7870 ha         1 CYF       0.114000
     47 H18          0.3420    -3.2770     0.3910 ha         1 CYF       0.177000
     48 HNL          0.3350    -0.3370     2.6360 hn         1 CYF       0.263000
     49 HAL3        -1.3890    -0.1090     4.3230 h2         1 CYF       0.172500
     50 HAL2         0.2310     0.1800     3.8590 h2         1 CYF       0.172500
     51 HB3         -0.9110     1.1110     6.5800 h1         1 CYF       0.088000
     52 HB2          0.7820     1.2370     6.0530 h1         1 CYF       0.088000
     53 HA           1.5020     0.1060     8.1860 h1         1 CYF       0.084000
     54 H           -0.9070     0.5710     9.7080 hn         1 CYF       0.073000
     55 HNT1         2.1590     3.2170     9.7990 hn         1 CYF       0.209000
     56 HNT2         2.6040     1.5310     9.6220 hn         1 CYF       0.209000
     57 O            0.0380     2.9970     8.4710 o          1 CYF      -0.391000
@<TRIPOS>BOND
     1     1     2 1   
     2     1     3 ar  
     3     1    16 ar  
     4     2    36 1   
     5     3     4 ar  
     6     3    37 1   
     7     4     5 1   
     8     4    14 ar  
     9     5     6 1   
    10     6     7 ar  
    11     6    12 ar  
    12     7     8 ar  
    13     7    38 1   
    14     8     9 1   
    15     8    10 ar  
    16     9    39 1   
    17    10    11 ar  
    18    10    40 1   
    19    11    12 ar  
    20    11    41 1   
    21    12    13 1   
    22    13    14 1   
    23    13    17 1   
    24    13    42 1   
    25    14    15 ar  
    26    15    16 ar  
    27    15    43 1   
    28    16    44 1   
    29    17    18 ar  
    30    17    22 ar  
    31    18    19 ar  
    32    18    45 1   
    33    19    20 ar  
    34    19    46 1   
    35    20    21 ar  
    36    20    26 1   
    37    21    22 ar  
    38    21    47 1   
    39    22    23 1   
    40    23    24 1   
    41    23    25 1   
    42    26    27 1   
    43    26    48 1   
    44    27    28 1   
    45    27    29 1   
    46    29    30 1   
    47    29    49 1   
    48    29    50 1   
    49    30    31 1   
    50    31    32 1   
    51    31    51 1   
    52    31    52 1   
    53    32    33 1   
    54    32    34 1   
    55    32    53 1   
    56    33    54 1   
    57    34    35 1   
    58    34    57 1   
    59    35    55 1   
    60    35    56 1   
@<TRIPOS>SUBSTRUCTURE
     1 CYF         1 TEMP              0 ****  ****    0 ROOT
