@<TRIPOS>MOLECULE
CYG
   28    27     1     0     0
SMALL
bcc


@<TRIPOS>ATOM
      1 N           20.8850    50.9270   108.2730 n8         1 CYG      -0.880800
      2 CA          22.1830    51.5350   108.0220 c3         1 CYG       0.022500
      3 C           22.6030    52.3600   109.2640 c          1 CYG       0.941600
      4 O           23.7180    52.1230   109.7610 o          1 CYG      -0.826800
      5 CB          22.1490    52.4190   106.7690 c3         1 CYG      -0.002300
      6 SG          23.7720    53.1110   106.3490 ss         1 CYG      -0.339700
      7 N1          26.3900    58.1570   106.5670 n8         1 CYG      -0.899800
      8 CA1         26.5980    57.0770   107.5180 c3         1 CYG       0.018500
      9 CB1         25.3180    56.2600   107.6870 c3         1 CYG      -0.030400
     10 CG1         24.8640    55.6020   106.3840 c3         1 CYG      -0.148400
     11 CD1         23.5720    54.8550   106.5790 c          1 CYG       0.626700
     12 OE2         22.5290    55.3810   106.8730 o          1 CYG      -0.541100
     13 C1          27.8140    56.2000   107.1160 c          1 CYG       0.924600
     14 O1          27.9000    55.0890   107.6740 o          1 CYG      -0.837800
     15 O2          28.6230    56.6920   106.3050 o          1 CYG      -0.837800
     16 OXT         21.7670    53.2020   109.6510 o          1 CYG      -0.826800
     17 H           20.5330    50.4910   107.4290 hn         1 CYG       0.312800
     18 H2          20.2300    51.6600   108.5160 hn         1 CYG       0.312800
     19 HA          22.9120    50.7350   107.8620 h1         1 CYG       0.051700
     20 HB2         21.8190    51.8380   105.9060 h1         1 CYG       0.044700
     21 HB3         21.4510    53.2470   106.9030 h1         1 CYG       0.044700
     22 HA1         26.8450    57.4620   108.5230 h1         1 CYG      -0.003300
     23 HB13        25.4790    55.4970   108.4490 hc         1 CYG       0.044700
     24 HB12        24.5210    56.9100   108.0570 hc         1 CYG       0.044700
     25 HG13        24.7020    56.3720   105.6260 hc         1 CYG       0.072200
     26 HG12        25.6410    54.9320   106.0120 hc         1 CYG       0.072200
     27 HN11        27.2940    58.4510   106.2210 hn         1 CYG       0.321300
     28 HN12        25.9680    58.9530   107.0260 hn         1 CYG       0.321300
@<TRIPOS>BOND
     1     1     2 1   
     2     1    17 1   
     3     1    18 1   
     4     2     3 1   
     5     2     5 1   
     6     2    19 1   
     7     3     4 1   
     8     3    16 1   
     9     5     6 1   
    10     5    20 1   
    11     5    21 1   
    12     6    11 1   
    13     7     8 1   
    14     7    27 1   
    15     7    28 1   
    16     8     9 1   
    17     8    13 1   
    18     8    22 1   
    19     9    10 1   
    20     9    23 1   
    21     9    24 1   
    22    10    11 1   
    23    10    25 1   
    24    10    26 1   
    25    11    12 2   
    26    13    14 1   
    27    13    15 1   
@<TRIPOS>SUBSTRUCTURE
     1 CYG         1 TEMP              0 ****  ****    0 ROOT
