@<TRIPOS>MOLECULE
CYG
   28    27     1     0     0
SMALL
No Charge or Current Charge


@<TRIPOS>ATOM
      1 N           20.5050    50.8370   107.8680 n8         1 CYG      -0.880800
      2 CA          21.9280    51.3190   108.0580 c3         1 CYG       0.022500
      3 C           22.5120    51.2750   109.5370 c          1 CYG       0.941600
      4 O           23.3750    50.4420   109.8050 o          1 CYG      -0.826800
      5 CB          22.0830    52.7280   107.4360 c3         1 CYG      -0.002300
      6 SG          23.8630    53.2160   107.3000 ss         1 CYG      -0.339700
      7 N1          26.5700    58.2800   106.0720 n8         1 CYG      -0.899800
      8 CA1         26.7150    57.3360   107.2440 c3         1 CYG       0.018500
      9 CB1         25.3920    56.5360   107.4380 c3         1 CYG      -0.030400
     10 CG1         25.0370    55.5650   106.2800 c3         1 CYG      -0.148400
     11 CD1         23.7020    54.8630   106.5370 c          1 CYG       0.626700
     12 OE2         22.6240    55.3700   106.2570 o          1 CYG      -0.541100
     13 C1          28.0270    56.4140   107.3030 c          1 CYG       0.924600
     14 O1          28.0060    55.3680   107.9430 o          1 CYG      -0.837800
     15 O2          29.0280    56.7730   106.6860 o          1 CYG      -0.837800
     16 OXT         22.0010    51.9870   110.3980 o          1 CYG      -0.826800
     17 H           20.2120    51.0070   106.9010 hn         1 CYG       0.312800
     18 H2          19.8770    51.4150   108.4380 hn         1 CYG       0.312800
     19 HA          22.5600    50.6430   107.4660 h1         1 CYG       0.051700
     20 HB2         21.6510    52.7360   106.4270 h1         1 CYG       0.044700
     21 HB3         21.5510    53.4690   108.0460 h1         1 CYG       0.044700
     22 HA1         26.8050    57.9930   108.1200 h1         1 CYG      -0.003300
     23 HB13        25.4420    55.9750   108.3790 hc         1 CYG       0.044700
     24 HB12        24.5680    57.2510   107.5610 hc         1 CYG       0.044700
     25 HG13        24.9660    56.1260   105.3420 hc         1 CYG       0.072200
     26 HG12        25.8300    54.8110   106.2180 hc         1 CYG       0.072200
     27 HN11        27.4230    58.8450   105.9940 hn         1 CYG       0.321300
     28 HN12        25.8250    58.9560   106.2670 hn         1 CYG       0.321300
@<TRIPOS>BOND
     1     1     2 1   
     2     1    17 1   
     3     1    18 1   
     4     2     3 1   
     5     2     5 1   
     6     2    19 1   
     7     3     4 1   
     8     3    16 1   
     9     5     6 1   
    10     5    20 1   
    11     5    21 1   
    12     6    11 1   
    13     7     8 1   
    14     7    27 1   
    15     7    28 1   
    16     8     9 1   
    17     8    13 1   
    18     8    22 1   
    19     9    10 1   
    20     9    23 1   
    21     9    24 1   
    22    10    11 1   
    23    10    25 1   
    24    10    26 1   
    25    11    12 2   
    26    13    14 1   
    27    13    15 1   
@<TRIPOS>SUBSTRUCTURE
     1 CYG         1 TEMP              0 ****  ****    0 ROOT
