@<TRIPOS>MOLECULE
CYH
   17    17     1     0     0
SMALL
bcc


@<TRIPOS>ATOM
      1 C1          -0.0160    -0.1050    -1.0860 c          1 CYH       0.575100
      2 O1          -0.0310     0.2880    -2.2330 o          1 CYH      -0.522100
      3 C2           1.2640    -0.3680    -0.3350 c6         1 CYH      -0.185400
      4 C3           1.2590     0.2910     1.0500 c6         1 CYH      -0.067400
      5 C4           0.0140    -0.0850     1.8430 c6         1 CYH      -0.079400
      6 C5          -1.2510     0.2770     1.0760 c6         1 CYH      -0.067400
      7 C6          -1.2770    -0.3820    -0.3080 c6         1 CYH      -0.185400
      8 H21          1.3510    -1.4530    -0.2100 hc         1 CYH       0.065200
      9 H22          2.1170    -0.0390    -0.9290 hc         1 CYH       0.065200
     10 H31          2.1620    -0.0030     1.5870 hc         1 CYH       0.046200
     11 H32          1.3050     1.3770     0.9330 hc         1 CYH       0.046200
     12 H41          0.0220    -1.1600     2.0510 hc         1 CYH       0.043700
     13 H42          0.0220     0.4210     2.8110 hc         1 CYH       0.043700
     14 H51         -2.1400    -0.0270     1.6310 hc         1 CYH       0.046200
     15 H52         -1.3120     1.3630     0.9600 hc         1 CYH       0.046200
     16 H61         -2.1470    -0.0640    -0.8840 hc         1 CYH       0.065200
     17 H62         -1.3480    -1.4690    -0.1810 hc         1 CYH       0.065200
@<TRIPOS>BOND
     1     1     2 2   
     2     1     3 1   
     3     1     7 1   
     4     3     4 1   
     5     3     8 1   
     6     3     9 1   
     7     4     5 1   
     8     4    10 1   
     9     4    11 1   
    10     5     6 1   
    11     5    12 1   
    12     5    13 1   
    13     6     7 1   
    14     6    14 1   
    15     6    15 1   
    16     7    16 1   
    17     7    17 1   
@<TRIPOS>SUBSTRUCTURE
     1 CYH         1 TEMP              0 ****  ****    0 ROOT
