@<TRIPOS>MOLECULE
CYH
   17    17     1     0     0
SMALL
No Charge or Current Charge


@<TRIPOS>ATOM
      1 C1          -0.0160    -0.1420    -1.1240 c          1 CYH       0.575100
      2 O1          -0.0310     0.3460    -2.2470 o          1 CYH      -0.522100
      3 C2           1.2970    -0.3670    -0.3570 c6         1 CYH      -0.185400
      4 C3           1.2830     0.2920     1.0470 c6         1 CYH      -0.067400
      5 C4           0.0140    -0.0930     1.8460 c6         1 CYH      -0.079400
      6 C5          -1.2750     0.2770     1.0740 c6         1 CYH      -0.067400
      7 C6          -1.3100    -0.3820    -0.3300 c6         1 CYH      -0.185400
      8 H21          1.3580    -1.4470    -0.1670 hc         1 CYH       0.065200
      9 H22          2.1580    -0.0510    -0.9600 hc         1 CYH       0.065200
     10 H31          2.1810    -0.0030     1.6070 hc         1 CYH       0.046200
     11 H32          1.3300     1.3840     0.9390 hc         1 CYH       0.046200
     12 H41          0.0230    -1.1700     2.0620 hc         1 CYH       0.043700
     13 H42          0.0220     0.4170     2.8190 hc         1 CYH       0.043700
     14 H51         -2.1570    -0.0280     1.6530 hc         1 CYH       0.046200
     15 H52         -1.3370     1.3690     0.9670 hc         1 CYH       0.046200
     16 H61         -2.1880    -0.0760    -0.9140 hc         1 CYH       0.065200
     17 H62         -1.3560    -1.4630    -0.1380 hc         1 CYH       0.065200
@<TRIPOS>BOND
     1     1     2 2   
     2     1     3 1   
     3     1     7 1   
     4     3     4 1   
     5     3     8 1   
     6     3     9 1   
     7     4     5 1   
     8     4    10 1   
     9     4    11 1   
    10     5     6 1   
    11     5    12 1   
    12     5    13 1   
    13     6     7 1   
    14     6    14 1   
    15     6    15 1   
    16     7    16 1   
    17     7    17 1   
@<TRIPOS>SUBSTRUCTURE
     1 CYH         1 TEMP              0 ****  ****    0 ROOT
