@<TRIPOS>MOLECULE
CYI
   19    19     1     0     0
SMALL
abcg2


@<TRIPOS>ATOM
      1 C1           2.2000    -0.0010     0.3320 c6         1 CYI      -0.077400
      2 C2           1.5160     1.2600    -0.1830 c6         1 CYI      -0.074400
      3 C3           0.0270     1.2610     0.1500 c6         1 CYI      -0.087400
      4 C4          -0.6380     0.0000    -0.4000 c6         1 CYI       0.289800
      5 C5           0.0320    -1.2680     0.1280 c6         1 CYI      -0.087400
      6 C6           1.5210    -1.2550    -0.2060 c6         1 CYI      -0.074400
      7 N           -2.0260    -0.0050    -0.0830 n1         1 CYI      -0.927500
      8 C           -3.1560    -0.0080     0.1910 c1         1 CYI       0.503000
      9 H11          3.2580     0.0030     0.0590 hc         1 CYI       0.043200
     10 H12          2.1590    -0.0110     1.4270 hc         1 CYI       0.043200
     11 H21          1.6460     1.3330    -1.2680 hc         1 CYI       0.043700
     12 H22          1.9820     2.1500     0.2450 hc         1 CYI       0.043700
     13 H31         -0.4600     2.1460    -0.2660 hc         1 CYI       0.052700
     14 H32         -0.1130     1.2940     1.2350 hc         1 CYI       0.052700
     15 H4          -0.5660     0.0090    -1.4920 h1         1 CYI       0.061700
     16 H51         -0.1070    -1.3210     1.2120 hc         1 CYI       0.052700
     17 H52         -0.4520    -2.1470    -0.3040 hc         1 CYI       0.052700
     18 H61          1.6510    -1.3080    -1.2920 hc         1 CYI       0.043700
     19 H62          1.9900    -2.1510     0.2050 hc         1 CYI       0.043700
@<TRIPOS>BOND
     1     1     2 1   
     2     1     6 1   
     3     1     9 1   
     4     1    10 1   
     5     2     3 1   
     6     2    11 1   
     7     2    12 1   
     8     3     4 1   
     9     3    13 1   
    10     3    14 1   
    11     4     5 1   
    12     4     7 1   
    13     4    15 1   
    14     5     6 1   
    15     5    16 1   
    16     5    17 1   
    17     6    18 1   
    18     6    19 1   
    19     7     8 3   
@<TRIPOS>SUBSTRUCTURE
     1 CYI         1 TEMP              0 ****  ****    0 ROOT
