@<TRIPOS>MOLECULE
CYI
   19    19     1     0     0
SMALL
No Charge or Current Charge


@<TRIPOS>ATOM
      1 C1           2.2270    -0.0010     0.3380 c6         1 CYI      -0.077400
      2 C2           1.5310     1.2810    -0.1840 c6         1 CYI      -0.074400
      3 C3           0.0180     1.2740     0.1520 c6         1 CYI      -0.087400
      4 C4          -0.6770     0.0000    -0.3990 c6         1 CYI       0.289800
      5 C5           0.0230    -1.2810     0.1290 c6         1 CYI      -0.087400
      6 C6           1.5360    -1.2760    -0.2070 c6         1 CYI      -0.074400
      7 N           -2.0840    -0.0050    -0.0640 n1         1 CYI      -0.927500
      8 C           -3.2310    -0.0090     0.1610 c1         1 CYI       0.503000
      9 H11          3.2860     0.0030     0.0450 hc         1 CYI       0.043200
     10 H12          2.2080    -0.0110     1.4370 hc         1 CYI       0.043200
     11 H21          1.6690     1.3600    -1.2720 hc         1 CYI       0.043700
     12 H22          2.0070     2.1680     0.2550 hc         1 CYI       0.043700
     13 H31         -0.4570     2.1700    -0.2700 hc         1 CYI       0.052700
     14 H32         -0.1170     1.3310     1.2410 hc         1 CYI       0.052700
     15 H4          -0.6040     0.0100    -1.4990 h1         1 CYI       0.061700
     16 H51         -0.1120    -1.3580     1.2160 hc         1 CYI       0.052700
     17 H52         -0.4490    -2.1710    -0.3100 hc         1 CYI       0.052700
     18 H61          1.6740    -1.3350    -1.2960 hc         1 CYI       0.043700
     19 H62          2.0150    -2.1700     0.2160 hc         1 CYI       0.043700
@<TRIPOS>BOND
     1     1     2 1   
     2     1     6 1   
     3     1     9 1   
     4     1    10 1   
     5     2     3 1   
     6     2    11 1   
     7     2    12 1   
     8     3     4 1   
     9     3    13 1   
    10     3    14 1   
    11     4     5 1   
    12     4     7 1   
    13     4    15 1   
    14     5     6 1   
    15     5    16 1   
    16     5    17 1   
    17     6    18 1   
    18     6    19 1   
    19     7     8 3   
@<TRIPOS>SUBSTRUCTURE
     1 CYI         1 TEMP              0 ****  ****    0 ROOT
