@<TRIPOS>MOLECULE
CYK
   33    32     1     0     0
SMALL
No Charge or Current Charge


@<TRIPOS>ATOM
      1 C2          11.3740    35.2530    28.1440 c3         1 CYK      -0.072400
      2 C5          10.3740    34.4000    25.1310 c          1 CYK       0.587100
      3 C4          11.5980    32.6820    28.2840 c          1 CYK       0.706000
      4 O3          11.2410    35.1720    24.7430 o          1 CYK      -0.626100
      5 N1          10.4370    33.7700    26.3550 ns         1 CYK      -0.464900
      6 C3          11.5250    33.9290    27.3490 c3         1 CYK      -0.030300
      7 O2          12.6810    32.1330    28.4270 o          1 CYK      -0.723500
      8 O1          10.5590    32.2520    28.7690 o          1 CYK      -0.723500
      9 C1          12.5300    35.5170    29.1320 c3         1 CYK       0.122600
     10 S           12.3630    37.1340    30.0290 sh         1 CYK      -0.548800
     11 C6           9.1170    34.0870    24.3080 c3         1 CYK      -0.154400
     12 C7           9.4180    33.1860    23.0850 c3         1 CYK      -0.060400
     13 C8           9.9300    31.7730    23.4600 c3         1 CYK      -0.085400
     14 C9          10.2650    30.8730    22.2460 c3         1 CYK      -0.073400
     15 C10          9.0480    30.4920    21.3780 c3         1 CYK      -0.088100
     16 H2          11.3200    36.0920    27.4400 hc         1 CYK       0.031700
     17 H2A         10.4260    35.2380    28.6950 hc         1 CYK       0.031700
     18 HN1          9.6690    33.1510    26.5900 hn         1 CYK       0.294500
     19 H3          12.4750    33.9660    26.7990 h1         1 CYK       0.067700
     20 H1          12.5730    34.7110    29.8770 h1         1 CYK       0.085700
     21 H1A         13.4820    35.5190    28.5840 h1         1 CYK       0.085700
     22 HS          11.1670    36.8560    30.6070 hs         1 CYK       0.219800
     23 H6           8.3690    33.5840    24.9330 hc         1 CYK       0.040700
     24 H6A          8.7020    35.0310    23.9350 hc         1 CYK       0.040700
     25 H7           8.4980    33.0940    22.4960 hc         1 CYK       0.036200
     26 H7A         10.1560    33.6820    22.4430 hc         1 CYK       0.036200
     27 H8          10.8360    31.8690    24.0710 hc         1 CYK       0.060200
     28 H8A          9.1830    31.2680    24.0870 hc         1 CYK       0.060200
     29 H9          11.0150    31.3710    21.6190 hc         1 CYK       0.039200
     30 H9A         10.7300    29.9510    22.6150 hc         1 CYK       0.039200
     31 H10          8.2700    30.0150    21.9870 hc         1 CYK       0.021367
     32 H10A         8.6170    31.3740    20.8900 hc         1 CYK       0.021367
     33 H10B         9.3480    29.7860    20.5940 hc         1 CYK       0.021367
@<TRIPOS>BOND
     1     1     6 1   
     2     1     9 1   
     3     1    16 1   
     4     1    17 1   
     5     2     4 2   
     6     2     5 1   
     7     2    11 1   
     8     3     6 1   
     9     3     7 1   
    10     3     8 1   
    11     5     6 1   
    12     5    18 1   
    13     6    19 1   
    14     9    10 1   
    15     9    20 1   
    16     9    21 1   
    17    10    22 1   
    18    11    12 1   
    19    11    23 1   
    20    11    24 1   
    21    12    13 1   
    22    12    25 1   
    23    12    26 1   
    24    13    14 1   
    25    13    27 1   
    26    13    28 1   
    27    14    15 1   
    28    14    29 1   
    29    14    30 1   
    30    15    31 1   
    31    15    32 1   
    32    15    33 1   
@<TRIPOS>SUBSTRUCTURE
     1 CYK         1 TEMP              0 ****  ****    0 ROOT
