@<TRIPOS>MOLECULE
CYK
   33    32     1     0     0
SMALL
abcg2


@<TRIPOS>ATOM
      1 C2          11.1180    35.1340    28.3200 c3         1 CYK      -0.072400
      2 C5          10.8720    34.4710    24.7010 c          1 CYK       0.587100
      3 C4          12.3610    33.1800    27.2660 c          1 CYK       0.706000
      4 O3          12.0070    34.5540    24.2180 o          1 CYK      -0.626100
      5 N1          10.6440    34.5130    26.0260 ns         1 CYK      -0.464900
      6 C3          11.7040    34.5700    27.0190 c3         1 CYK      -0.030300
      7 O2          13.6080    33.1770    27.4150 o          1 CYK      -0.723500
      8 O1          11.5910    32.1920    27.3320 o          1 CYK      -0.723500
      9 C1          12.1640    35.3450    29.4040 c3         1 CYK       0.122600
     10 S           11.4780    36.0680    30.9410 sh         1 CYK      -0.548800
     11 C6           9.6460    34.3320    23.8180 c3         1 CYK      -0.154400
     12 C7           9.7230    33.0960    22.9150 c3         1 CYK      -0.060400
     13 C8           9.7140    31.7830    23.6960 c3         1 CYK      -0.085400
     14 C9           9.8210    30.5330    22.8170 c3         1 CYK      -0.073400
     15 C10          8.6190    30.3100    21.9000 c3         1 CYK      -0.088100
     16 H2          10.6280    36.0850    28.0990 hc         1 CYK       0.031700
     17 H2A         10.3470    34.4470    28.6830 hc         1 CYK       0.031700
     18 HN1          9.7060    34.3320    26.3480 hn         1 CYK       0.294500
     19 H3          12.4740    35.2420    26.6420 h1         1 CYK       0.067700
     20 H1          12.6770    34.4190    29.6540 h1         1 CYK       0.085700
     21 H1A         12.9190    36.0620    29.0790 h1         1 CYK       0.085700
     22 HS          10.6840    35.0360    31.2740 hs         1 CYK       0.219800
     23 H6           8.7390    34.2980    24.4240 hc         1 CYK       0.040700
     24 H6A          9.5950    35.2330    23.2010 hc         1 CYK       0.040700
     25 H7           8.8800    33.1280    22.2220 hc         1 CYK       0.036200
     26 H7A         10.6320    33.1540    22.3090 hc         1 CYK       0.036200
     27 H8          10.5470    31.7840    24.4060 hc         1 CYK       0.060200
     28 H8A          8.7980    31.7270    24.2960 hc         1 CYK       0.060200
     29 H9          10.7340    30.5980    22.2160 hc         1 CYK       0.039200
     30 H9A          9.9410    29.6600    23.4650 hc         1 CYK       0.039200
     31 H10          7.6940    30.2520    22.4790 hc         1 CYK       0.021367
     32 H10A         8.5070    31.1180    21.1740 hc         1 CYK       0.021367
     33 H10B         8.7220    29.3770    21.3410 hc         1 CYK       0.021367
@<TRIPOS>BOND
     1     1     6 1   
     2     1     9 1   
     3     1    16 1   
     4     1    17 1   
     5     2     4 2   
     6     2     5 1   
     7     2    11 1   
     8     3     6 1   
     9     3     7 1   
    10     3     8 1   
    11     5     6 1   
    12     5    18 1   
    13     6    19 1   
    14     9    10 1   
    15     9    20 1   
    16     9    21 1   
    17    10    22 1   
    18    11    12 1   
    19    11    23 1   
    20    11    24 1   
    21    12    13 1   
    22    12    25 1   
    23    12    26 1   
    24    13    14 1   
    25    13    27 1   
    26    13    28 1   
    27    14    15 1   
    28    14    29 1   
    29    14    30 1   
    30    15    31 1   
    31    15    32 1   
    32    15    33 1   
@<TRIPOS>SUBSTRUCTURE
     1 CYK         1 TEMP              0 ****  ****    0 ROOT
