@<TRIPOS>MOLECULE
CYL
   25    25     1     0     0
SMALL
abcg2


@<TRIPOS>ATOM
      1 C1          -1.6200     0.1820    -0.6800 c6         1 CYL       0.158700
      2 C2          -0.4110     0.5900    -1.5280 c6         1 CYL       0.184300
      3 C3           0.8180    -0.1790    -1.0830 c6         1 CYL       0.180300
      4 C4           1.1600     0.2220     0.3490 c6         1 CYL       0.168500
      5 C5          -0.0420     0.1690     1.2610 c2         1 CYL      -0.136400
      6 C6           0.2740     0.1700     2.7280 c3         1 CYL       0.203800
      7 N1          -2.0840    -1.1480    -1.0640 n8         1 CYL      -0.983200
      8 O2          -0.6280     0.3520    -2.8980 oh         1 CYL      -0.690000
      9 O3           1.8880     0.1140    -1.9480 oh         1 CYL      -0.647000
     10 O4           2.2010    -0.6340     0.7880 oh         1 CYL      -0.722000
     11 C7          -1.2820     0.1830     0.7820 c2         1 CYL      -0.182200
     12 O6          -0.8920     0.3290     3.4930 oh         1 CYL      -0.660000
     13 H1          -2.3950     0.9510    -0.8390 h1         1 CYL       0.019700
     14 H2          -0.2300     1.6610    -1.3510 h1         1 CYL       0.033700
     15 H3           0.5830    -1.2540    -1.0960 h1         1 CYL       0.083700
     16 H4           1.5220     1.2610     0.3250 h1         1 CYL       0.043700
     17 H61          0.7910    -0.7640     2.9780 h1         1 CYL       0.027200
     18 H62          0.9960     0.9780     2.9250 h1         1 CYL       0.027200
     19 HN11        -2.8460    -1.4240    -0.4570 hn         1 CYL       0.399000
     20 HN12        -2.4760    -1.1130    -1.9970 hn         1 CYL       0.399000
     21 HO2         -1.3110     0.9590    -3.2000 ho         1 CYL       0.494000
     22 HO3          2.6660    -0.3390    -1.6060 ho         1 CYL       0.450000
     23 HO4          2.8150    -0.1330     1.3310 ho         1 CYL       0.504000
     24 H7          -2.1250     0.1690     1.4640 ha         1 CYL       0.194000
     25 HO6         -0.6750     0.1400     4.4090 ho         1 CYL       0.448000
@<TRIPOS>BOND
     1     1     2 1   
     2     1     7 1   
     3     1    11 1   
     4     1    13 1   
     5     2     3 1   
     6     2     8 1   
     7     2    14 1   
     8     3     4 1   
     9     3     9 1   
    10     3    15 1   
    11     4     5 1   
    12     4    10 1   
    13     4    16 1   
    14     5     6 1   
    15     5    11 2   
    16     6    12 1   
    17     6    17 1   
    18     6    18 1   
    19     7    19 1   
    20     7    20 1   
    21     8    21 1   
    22     9    22 1   
    23    10    23 1   
    24    11    24 1   
    25    12    25 1   
@<TRIPOS>SUBSTRUCTURE
     1 CYL         1 TEMP              0 ****  ****    0 ROOT
