@<TRIPOS>MOLECULE
CYL
   25    25     1     0     0
SMALL
No Charge or Current Charge


@<TRIPOS>ATOM
      1 C1          -1.6530     0.0540    -0.6620 c6         1 CYL       0.158700
      2 C2          -0.4860     0.6210    -1.5470 c6         1 CYL       0.184300
      3 C3           0.8460    -0.0940    -1.1510 c6         1 CYL       0.180300
      4 C4           1.1900     0.1930     0.3480 c6         1 CYL       0.168500
      5 C5          -0.0200     0.0380     1.2840 c2         1 CYL      -0.136400
      6 C6           0.2780     0.0300     2.7800 c3         1 CYL       0.203800
      7 N1          -2.1050    -1.2830    -1.1060 n8         1 CYL      -0.983200
      8 O2          -0.7950     0.4580    -2.9560 oh         1 CYL      -0.690000
      9 O3           1.9630     0.3150    -1.9760 oh         1 CYL      -0.647000
     10 O4           2.2840    -0.6540     0.7510 oh         1 CYL      -0.722000
     11 C7          -1.2820    -0.0150     0.8070 c2         1 CYL      -0.182200
     12 O6          -0.5550     0.9780     3.4570 oh         1 CYL      -0.660000
     13 H1          -2.5160     0.7270    -0.7770 h1         1 CYL       0.019700
     14 H2          -0.3710     1.6910    -1.3160 h1         1 CYL       0.033700
     15 H3           0.6840    -1.1770    -1.2550 h1         1 CYL       0.083700
     16 H4           1.5040     1.2460     0.4110 h1         1 CYL       0.043700
     17 H61          0.1000    -0.9800     3.1740 h1         1 CYL       0.027200
     18 H62          1.3310     0.2740     2.9670 h1         1 CYL       0.027200
     19 HN11        -3.0520    -1.4520    -0.7490 hn         1 CYL       0.399000
     20 HN12        -2.2270    -1.2440    -2.1260 hn         1 CYL       0.399000
     21 HO2         -1.4210     1.1790    -3.1910 ho         1 CYL       0.494000
     22 HO3          2.7550    -0.0570    -1.5270 ho         1 CYL       0.450000
     23 HO4          2.7050    -0.2330     1.5350 ho         1 CYL       0.504000
     24 H7          -2.1240    -0.0920     1.4960 ha         1 CYL       0.194000
     25 HO6         -0.3330     0.9180     4.4130 ho         1 CYL       0.448000
@<TRIPOS>BOND
     1     1     2 1   
     2     1     7 1   
     3     1    11 1   
     4     1    13 1   
     5     2     3 1   
     6     2     8 1   
     7     2    14 1   
     8     3     4 1   
     9     3     9 1   
    10     3    15 1   
    11     4     5 1   
    12     4    10 1   
    13     4    16 1   
    14     5     6 1   
    15     5    11 2   
    16     6    12 1   
    17     6    17 1   
    18     6    18 1   
    19     7    19 1   
    20     7    20 1   
    21     8    21 1   
    22     9    22 1   
    23    10    23 1   
    24    11    24 1   
    25    12    25 1   
@<TRIPOS>SUBSTRUCTURE
     1 CYL         1 TEMP              0 ****  ****    0 ROOT
