@<TRIPOS>MOLECULE
CYM
   16    15     1     0     0
SMALL
No Charge or Current Charge


@<TRIPOS>ATOM
      1 N           -1.8420     0.2490    -0.5140 n8         1 CYM      -0.987200
      2 CA          -0.3450     0.4190    -0.6650 c3         1 CYM       0.024500
      3 CB           0.4040    -0.2560     0.5150 c3         1 CYM       0.074600
      4 SG          -0.2100     0.3560     2.1610 ss         1 CYM      -0.519000
      5 CD           0.8860    -0.6200     3.2890 c3         1 CYM       0.049900
      6 C            0.2910    -0.0430    -2.0350 c          1 CYM       0.724000
      7 O            0.2030    -1.2230    -2.3530 o          1 CYM      -0.723000
      8 OXT          0.8030     0.8060    -2.7540 o          1 CYM      -0.723000
      9 HN1         -2.0650     0.3990     0.4780 hn         1 CYM       0.383500
     10 HN2         -2.0760    -0.7400    -0.6660 hn         1 CYM       0.383500
     11 HA          -0.1420     1.4960    -0.5850 h1         1 CYM       0.058700
     12 HB1          1.4780    -0.0400     0.4320 h1         1 CYM       0.059700
     13 HB2          0.2730    -1.3450     0.4640 h1         1 CYM       0.059700
     14 HD1          0.6540    -0.3770     4.3340 h1         1 CYM       0.044700
     15 HD2          0.7270    -1.6940     3.1260 h1         1 CYM       0.044700
     16 HD3          1.9380    -0.3770     3.0890 h1         1 CYM       0.044700
@<TRIPOS>BOND
     1     1     2 1   
     2     1     9 1   
     3     1    10 1   
     4     2     3 1   
     5     2     6 1   
     6     2    11 1   
     7     3     4 1   
     8     3    12 1   
     9     3    13 1   
    10     4     5 1   
    11     5    14 1   
    12     5    15 1   
    13     5    16 1   
    14     6     7 1   
    15     6     8 1   
@<TRIPOS>SUBSTRUCTURE
     1 CYM         1 TEMP              0 ****  ****    0 ROOT
