@<TRIPOS>MOLECULE
CYM
   16    15     1     0     0
SMALL
abcg2


@<TRIPOS>ATOM
      1 N           -1.8090     0.1000    -0.5280 n8         1 CYM      -0.987200
      2 CA          -0.3980     0.4230    -0.6070 c3         1 CYM       0.024500
      3 CB           0.4570    -0.1730     0.5200 c3         1 CYM       0.074600
      4 SG          -0.0650     0.4840     2.1340 ss         1 CYM      -0.519000
      5 CD           0.9010    -0.5770     3.2310 c3         1 CYM       0.049900
      6 C            0.2120    -0.0480    -1.9530 c          1 CYM       0.724000
      7 O           -0.4290    -0.8920    -2.6060 o          1 CYM      -0.723000
      8 OXT          1.3200     0.4420    -2.2460 o          1 CYM      -0.723000
      9 HN1         -2.1320     0.1650     0.4310 hn         1 CYM       0.383500
     10 HN2         -1.9350    -0.8630    -0.8110 hn         1 CYM       0.383500
     11 HA          -0.2860     1.5130    -0.5620 h1         1 CYM       0.058700
     12 HB1          1.5100     0.0650     0.3650 h1         1 CYM       0.059700
     13 HB2          0.3500    -1.2620     0.5340 h1         1 CYM       0.059700
     14 HD1          0.6580    -0.3060     4.2570 h1         1 CYM       0.044700
     15 HD2          0.6530    -1.6270     3.0790 h1         1 CYM       0.044700
     16 HD3          1.9700    -0.4340     3.0770 h1         1 CYM       0.044700
@<TRIPOS>BOND
     1     1     2 1   
     2     1     9 1   
     3     1    10 1   
     4     2     3 1   
     5     2     6 1   
     6     2    11 1   
     7     3     4 1   
     8     3    12 1   
     9     3    13 1   
    10     4     5 1   
    11     5    14 1   
    12     5    15 1   
    13     5    16 1   
    14     6     7 1   
    15     6     8 1   
@<TRIPOS>SUBSTRUCTURE
     1 CYM         1 TEMP              0 ****  ****    0 ROOT
