@<TRIPOS>MOLECULE
CYO
    3     3     1     0     0
SMALL
No Charge or Current Charge


@<TRIPOS>ATOM
      1 OD1         35.5950    46.5210   124.1740 op         1 CYO       0.000000
      2 OD2         37.1740    46.5130   123.9350 op         1 CYO       0.000000
      3 OD3         36.2960    47.7470   123.4280 op         1 CYO       0.000000
@<TRIPOS>BOND
     1     1     2 1   
     2     1     3 1   
     3     2     3 1   
@<TRIPOS>SUBSTRUCTURE
     1 CYO         1 TEMP              0 ****  ****    0 ROOT
