@<TRIPOS>MOLECULE
CYO
    3     3     1     0     0
SMALL
abcg2


@<TRIPOS>ATOM
      1 OD1         35.6910    46.5710   124.1330 op         1 CYO       0.000000
      2 OD2         37.0710    46.5640   123.9240 op         1 CYO       0.000000
      3 OD3         36.3030    47.6460   123.4790 op         1 CYO       0.000000
@<TRIPOS>BOND
     1     1     2 1   
     2     1     3 1   
     3     2     3 1   
@<TRIPOS>SUBSTRUCTURE
     1 CYO         1 TEMP              0 ****  ****    0 ROOT
