@<TRIPOS>MOLECULE
CYQ
   19    18     1     0     0
SMALL
No Charge or Current Charge


@<TRIPOS>ATOM
      1 N           29.0610     3.6860    10.5400 n8         1 CYQ      -0.871800
      2 CA          27.9550     2.7270    10.1510 c3         1 CYQ       0.018500
      3 CB          28.5640     1.3710     9.7110 c3         1 CYQ       0.017700
      4 SG          27.3210     0.2770     8.8820 ss         1 CYQ      -0.326200
      5 CD          27.2130     1.0930     7.2070 c3         1 CYQ      -0.099500
      6 C           26.7720     2.5210    11.1980 c          1 CYQ       0.951600
      7 O           26.9820     1.8910    12.2340 o          1 CYQ      -0.850800
      8 OXT         25.7080     3.1050    11.0020 o          1 CYQ      -0.850800
      9 P           26.1580     0.2540     5.9020 p5         1 CYQ       1.162700
     10 O1P         26.2040     1.0650     4.6510 o          1 CYQ      -0.940833
     11 O2P         24.7460     0.1570     6.3720 o          1 CYQ      -0.940833
     12 O3P         26.6890    -1.1110     5.6200 o          1 CYQ      -0.940833
     13 H           28.6630     4.6180    10.6890 hn         1 CYQ       0.282300
     14 H2          29.7060     3.7960     9.7520 hn         1 CYQ       0.282300
     15 HA          27.4920     3.1700     9.2590 h1         1 CYQ       0.024700
     16 HB2         29.3910     1.5410     9.0090 h1         1 CYQ       0.019200
     17 HB3         28.9660     0.8450    10.5860 h1         1 CYQ       0.019200
     18 HD2         26.8180     2.1080     7.3370 h1         1 CYQ       0.022700
     19 HD3         28.2270     1.1750     6.7970 h1         1 CYQ       0.022700
@<TRIPOS>BOND
     1     1     2 1   
     2     1    13 1   
     3     1    14 1   
     4     2     3 1   
     5     2     6 1   
     6     2    15 1   
     7     3     4 1   
     8     3    16 1   
     9     3    17 1   
    10     4     5 1   
    11     5     9 1   
    12     5    18 1   
    13     5    19 1   
    14     6     7 1   
    15     6     8 1   
    16     9    10 1   
    17     9    11 1   
    18     9    12 1   
@<TRIPOS>SUBSTRUCTURE
     1 CYQ         1 TEMP              0 ****  ****    0 ROOT
