@<TRIPOS>MOLECULE
CYQ
   19    18     1     0     0
SMALL
bcc


@<TRIPOS>ATOM
      1 N           29.1170     3.4550    10.6940 n8         1 CYQ      -0.871800
      2 CA          28.0190     2.7600    10.0160 c3         1 CYQ       0.018500
      3 CB          28.5150     1.3720     9.6360 c3         1 CYQ       0.017700
      4 SG          27.2900     0.3390     8.7910 ss         1 CYQ      -0.326200
      5 CD          27.0240     1.2330     7.2380 c3         1 CYQ      -0.099500
      6 C           26.7900     2.6700    10.9540 c          1 CYQ       0.951600
      7 O           26.9570     2.0660    12.0320 o          1 CYQ      -0.850800
      8 OXT         25.7390     3.2120    10.5550 o          1 CYQ      -0.850800
      9 P           26.1650     0.1440     5.9590 p5         1 CYQ       1.162700
     10 O1P         25.8330     1.1360     4.8380 o          1 CYQ      -0.940833
     11 O2P         24.9440    -0.4090     6.7010 o          1 CYQ      -0.940833
     12 O3P         27.2010    -0.9150     5.5690 o          1 CYQ      -0.940833
     13 H           28.8230     4.3950    10.9330 hn         1 CYQ       0.282300
     14 H2          29.8780     3.5760    10.0360 hn         1 CYQ       0.282300
     15 HA          27.7110     3.2790     9.0980 h1         1 CYQ       0.024700
     16 HB2         29.4080     1.4480     9.0060 h1         1 CYQ       0.019200
     17 HB3         28.8010     0.8310    10.5410 h1         1 CYQ       0.019200
     18 HD2         26.4250     2.1250     7.4400 h1         1 CYQ       0.022700
     19 HD3         27.9940     1.5710     6.8620 h1         1 CYQ       0.022700
@<TRIPOS>BOND
     1     1     2 1   
     2     1    13 1   
     3     1    14 1   
     4     2     3 1   
     5     2     6 1   
     6     2    15 1   
     7     3     4 1   
     8     3    16 1   
     9     3    17 1   
    10     4     5 1   
    11     5     9 1   
    12     5    18 1   
    13     5    19 1   
    14     6     7 1   
    15     6     8 1   
    16     9    10 1   
    17     9    11 1   
    18     9    12 1   
@<TRIPOS>SUBSTRUCTURE
     1 CYQ         1 TEMP              0 ****  ****    0 ROOT
