@<TRIPOS>MOLECULE
CYR
   35    34     1     0     0
SMALL
bcc


@<TRIPOS>ATOM
      1 O1          25.9700    48.5260     0.4110 o          1 CYR      -0.831300
      2 C1          26.2030    49.5770     1.0380 c          1 CYR       0.934600
      3 O2          25.3650    50.3350     1.5680 o          1 CYR      -0.831300
      4 C2          27.6880    49.9680     1.2250 c3         1 CYR       0.015500
      5 N2          27.8410    51.4090     1.0660 n8         1 CYR      -0.865800
      6 C3          28.1940    49.4670     2.5860 c3         1 CYR      -0.084400
      7 C4          28.1700    47.9550     2.7720 c3         1 CYR      -0.085400
      8 C5          28.8820    47.5700     4.0610 c3         1 CYR       0.032300
      9 N6          28.8650    46.1380     4.3320 nu         1 CYR      -0.357100
     10 C7          27.9370    45.4720     4.9840 c2         1 CYR       0.423700
     11 N7          28.0450    44.2030     5.2770 nv         1 CYR      -0.484200
     12 SG          26.4310    46.3030     5.3680 ss         1 CYR      -0.214300
     13 CB          26.1570    46.0440     7.1670 c3         1 CYR       0.042700
     14 CA          26.3210    44.6390     7.7360 c3         1 CYR      -0.021500
     15 C           25.6600    44.5750     9.1470 c          1 CYR       0.922600
     16 O           25.8520    45.5680     9.8720 o          1 CYR      -0.799800
     17 N           25.8740    43.6200     6.7970 n8         1 CYR      -0.919800
     18 OXT         25.0420    43.5320     9.4200 o          1 CYR      -0.799800
     19 HC2         28.2770    49.4720     0.4470 h1         1 CYR       0.045700
     20 HN21        28.7470    51.6960     1.4190 hn         1 CYR       0.321300
     21 HN22        27.1510    51.8590     1.6560 hn         1 CYR       0.321300
     22 H31         27.6070    49.9420     3.3800 hc         1 CYR       0.018200
     23 H32         29.2240    49.8220     2.7160 hc         1 CYR       0.018200
     24 H41         28.6570    47.4610     1.9260 hc         1 CYR       0.070200
     25 H42         27.1420    47.5890     2.8010 hc         1 CYR       0.070200
     26 H51         28.4470    48.0920     4.9130 h1         1 CYR       0.065200
     27 H52         29.9320    47.8570     4.0120 h1         1 CYR       0.065200
     28 HN6         29.6480    45.6040     3.9760 hn         1 CYR       0.276700
     29 HN71        28.9050    43.7000     5.1090 hn         1 CYR       0.329200
     30 HN72        27.2230    43.7330     5.7400 hn         1 CYR       0.329200
     31 HB3         25.1240    46.3880     7.2590 h1         1 CYR       0.101200
     32 HB2         26.7870    46.7470     7.7030 h1         1 CYR       0.101200
     33 HA          27.3930    44.4730     7.8970 h1         1 CYR       0.044700
     34 H           24.9500    43.8430     6.4410 hn         1 CYR       0.373800
     35 H2          25.7690    42.7480     7.3030 hn         1 CYR       0.373800
@<TRIPOS>BOND
     1     1     2 1   
     2     2     3 1   
     3     2     4 1   
     4     4     5 1   
     5     4     6 1   
     6     4    19 1   
     7     5    20 1   
     8     5    21 1   
     9     6     7 1   
    10     6    22 1   
    11     6    23 1   
    12     7     8 1   
    13     7    24 1   
    14     7    25 1   
    15     8     9 1   
    16     8    26 1   
    17     8    27 1   
    18     9    10 2   
    19     9    28 1   
    20    10    11 1   
    21    10    12 1   
    22    11    29 1   
    23    11    30 1   
    24    12    13 1   
    25    13    14 1   
    26    13    31 1   
    27    13    32 1   
    28    14    15 1   
    29    14    17 1   
    30    14    33 1   
    31    15    16 1   
    32    15    18 1   
    33    17    34 1   
    34    17    35 1   
@<TRIPOS>SUBSTRUCTURE
     1 CYR         1 TEMP              0 ****  ****    0 ROOT
