@<TRIPOS>MOLECULE
CYR
   35    34     1     0     0
SMALL
No Charge or Current Charge


@<TRIPOS>ATOM
      1 O1          25.7580    48.5470     0.3210 o          1 CYR      -0.831300
      2 C1          26.0980    49.4280     1.1060 c          1 CYR       0.934600
      3 O2          25.2870    50.0390     1.7970 o          1 CYR      -0.831300
      4 C2          27.6260    49.8800     1.1300 c3         1 CYR       0.015500
      5 N2          27.9180    51.3150     0.7640 n8         1 CYR      -0.865800
      6 C3          28.3120    49.5580     2.4860 c3         1 CYR      -0.084400
      7 C4          28.2700    48.0610     2.8770 c3         1 CYR      -0.085400
      8 C5          29.0260    47.7690     4.1910 c3         1 CYR       0.032300
      9 N6          28.9890    46.3380     4.5170 nu         1 CYR      -0.357100
     10 C7          27.9970    45.7160     5.2600 c2         1 CYR       0.423700
     11 N7          27.9730    44.3590     5.0400 nv         1 CYR      -0.484200
     12 SG          26.3800    46.4230     5.5260 ss         1 CYR      -0.214300
     13 CB          26.0270    46.0320     7.3120 c3         1 CYR       0.042700
     14 CA          26.1890    44.5310     7.7010 c3         1 CYR      -0.021500
     15 C           25.7940    44.2870     9.2250 c          1 CYR       0.922600
     16 O           25.6250    45.2490     9.9670 o          1 CYR      -0.799800
     17 N           25.5370    43.6220     6.6730 n8         1 CYR      -0.919800
     18 OXT         25.5920    43.1320     9.5880 o          1 CYR      -0.799800
     19 HC2         28.1300    49.2670     0.3710 h1         1 CYR       0.045700
     20 HN21        28.9080    51.5140     0.9350 hn         1 CYR       0.321300
     21 HN22        27.4140    51.9310     1.4120 hn         1 CYR       0.321300
     22 H31         27.8390    50.1470     3.2820 hc         1 CYR       0.018200
     23 H32         29.3620    49.8750     2.4400 hc         1 CYR       0.018200
     24 H41         28.7130    47.4650     2.0690 hc         1 CYR       0.070200
     25 H42         27.2280    47.7370     2.9790 hc         1 CYR       0.070200
     26 H51         28.5980    48.3590     5.0130 h1         1 CYR       0.065200
     27 H52         30.0720    48.0810     4.0710 h1         1 CYR       0.065200
     28 HN6         29.7230    45.7480     4.1410 hn         1 CYR       0.276700
     29 HN71        28.8590    43.8760     5.0850 hn         1 CYR       0.329200
     30 HN72        27.1720    43.8800     5.4460 hn         1 CYR       0.329200
     31 HB3         25.0000    46.3520     7.5280 h1         1 CYR       0.101200
     32 HB2         26.6970    46.6380     7.9360 h1         1 CYR       0.101200
     33 HA          27.2630    44.3050     7.6700 h1         1 CYR       0.044700
     34 H           24.5270    43.8110     6.6420 hn         1 CYR       0.373800
     35 H2          25.5760    42.6550     7.0220 hn         1 CYR       0.373800
@<TRIPOS>BOND
     1     1     2 1   
     2     2     3 1   
     3     2     4 1   
     4     4     5 1   
     5     4     6 1   
     6     4    19 1   
     7     5    20 1   
     8     5    21 1   
     9     6     7 1   
    10     6    22 1   
    11     6    23 1   
    12     7     8 1   
    13     7    24 1   
    14     7    25 1   
    15     8     9 1   
    16     8    26 1   
    17     8    27 1   
    18     9    10 2   
    19     9    28 1   
    20    10    11 1   
    21    10    12 1   
    22    11    29 1   
    23    11    30 1   
    24    12    13 1   
    25    13    14 1   
    26    13    31 1   
    27    13    32 1   
    28    14    15 1   
    29    14    17 1   
    30    14    33 1   
    31    15    16 1   
    32    15    18 1   
    33    17    34 1   
    34    17    35 1   
@<TRIPOS>SUBSTRUCTURE
     1 CYR         1 TEMP              0 ****  ****    0 ROOT
