@<TRIPOS>MOLECULE
CYV
   99    99     1     0     0
SMALL
No Charge or Current Charge


@<TRIPOS>ATOM
      1 O43         -7.5980    -1.2560     1.4650 o          1 CYV      -0.567000
      2 C42         -7.1210    -1.4280     0.3550 c          1 CYV       0.655100
      3 O44         -7.6940    -2.0740    -0.7050 os         1 CYV      -0.470100
      4 C46         -9.0010    -2.6890    -0.6280 c3         1 CYV       0.225000
      5 C49        -10.0730    -1.6040    -0.3450 c3         1 CYV      -0.108767
      6 C48         -9.2220    -3.2920    -2.0330 c3         1 CYV      -0.108767
      7 C47         -8.9850    -3.8180     0.4340 c3         1 CYV      -0.108767
      8 N41         -5.9070    -0.9560    -0.0440 ns         1 CYV      -0.490900
      9 C39         -4.9490    -0.2190     0.8160 c3         1 CYV       0.053700
     10 C40         -4.3090    -1.1320     1.8980 c3         1 CYV       0.142600
     11 O45         -3.5360    -2.1810     1.2950 oh         1 CYV      -0.649000
     12 C37         -3.8750     0.4940    -0.0500 c          1 CYV       0.605100
     13 O38         -3.7830     0.3370    -1.2630 o          1 CYV      -0.585100
     14 N36         -3.0260     1.3420     0.6380 ns         1 CYV      -0.487900
     15 C32         -1.9390     2.1440     0.0270 c3         1 CYV       0.008700
     16 C33         -2.3660     3.6150    -0.2660 c3         1 CYV      -0.063700
     17 C35         -3.4460     3.7020    -1.3700 c3         1 CYV      -0.091100
     18 C34         -2.8080     4.3830     1.0040 c3         1 CYV      -0.091100
     19 C30         -0.6550     2.0590     0.9000 c          1 CYV       0.557100
     20 O31         -0.6950     1.8400     2.1060 o          1 CYV      -0.517100
     21 C29          0.6870     2.2460     0.1750 c3         1 CYV      -0.175400
     22 C22          1.4480     0.9010    -0.0320 c3         1 CYV      -0.128700
     23 C23          0.7030    -0.0900    -0.9650 c3         1 CYV      -0.029200
     24 C24          1.4360    -1.4120    -1.1010 c2         1 CYV      -0.229200
     25 C25          1.4020    -2.4540    -0.2480 c2         1 CYV      -0.112400
     26 C26          0.6130    -2.5010     1.0520 c3         1 CYV      -0.061400
     27 C27          2.1780    -3.7330    -0.4960 c3         1 CYV      -0.061400
     28 C21          2.8850     1.1550    -0.5320 c          1 CYV       0.597100
     29 O28          3.1260     1.6980    -1.6010 o          1 CYV      -0.592100
     30 N20          3.8800     0.7350     0.3240 ns         1 CYV      -0.511900
     31 C12          5.3190     0.8960     0.0930 c3         1 CYV       0.104700
     32 C5           6.0100    -0.4840    -0.0250 c3         1 CYV      -0.080400
     33 C6           5.4580    -1.3690    -1.1730 c3         1 CYV      -0.141400
     34 C7           6.2490    -2.6710    -1.3030 c          1 CYV       0.594100
     35 O11          5.6460    -3.7020    -0.6320 os         1 CYV      -0.452100
     36 C9           6.2800    -4.9910    -0.6630 c3         1 CYV       0.166600
     37 C10          5.3940    -5.9580     0.1390 c3         1 CYV      -0.097100
     38 O8           7.2960    -2.7690    -1.9290 o          1 CYV      -0.498000
     39 C19          5.9470     1.7730     1.2050 c3         1 CYV      -0.066400
     40 C13          5.3520     3.2040     1.3380 c5         1 CYV      -0.152700
     41 C14          5.8800     4.0090     2.5540 c5         1 CYV      -0.093400
     42 C15          5.4620     5.4530     2.1590 c5         1 CYV       0.102000
     43 N16          5.6770     5.4100     0.7140 ns         1 CYV      -0.518900
     44 C17          5.6640     4.1540     0.1710 c          1 CYV       0.562000
     45 O18          6.1020     3.9150    -0.9420 o          1 CYV      -0.541000
     46 H491        -9.9430    -0.7450    -1.0130 hc         1 CYV       0.049256
     47 H492       -11.0780    -2.0100    -0.5070 hc         1 CYV       0.049256
     48 H493       -10.0320    -1.2480     0.6900 hc         1 CYV       0.049256
     49 H481        -8.4460    -4.0300    -2.2670 hc         1 CYV       0.049256
     50 H482       -10.1960    -3.7920    -2.0950 hc         1 CYV       0.049256
     51 H483        -9.1930    -2.5100    -2.8020 hc         1 CYV       0.049256
     52 H471        -8.9600    -3.4210     1.4550 hc         1 CYV       0.049256
     53 H472        -9.8870    -4.4360     0.3490 hc         1 CYV       0.049256
     54 H473        -8.1140    -4.4710     0.2950 hc         1 CYV       0.049256
     55 HN41        -5.6420    -1.1670    -0.9980 hn         1 CYV       0.357500
     56 H39         -5.5030     0.5750     1.3320 h1         1 CYV       0.081700
     57 H401        -3.6740    -0.5250     2.5570 h1         1 CYV       0.035700
     58 H402        -5.1050    -1.5590     2.5210 h1         1 CYV       0.035700
     59 HO45        -3.2480    -2.7820     2.0180 ho         1 CYV       0.449000
     60 HN36        -3.1580     1.4080     1.6420 hn         1 CYV       0.315500
     61 H32         -1.6690     1.6820    -0.9320 h1         1 CYV       0.103700
     62 H33         -1.4840     4.1360    -0.6600 hc         1 CYV       0.055700
     63 H351        -4.3900     3.2560    -1.0350 hc         1 CYV       0.039033
     64 H352        -3.6420     4.7470    -1.6370 hc         1 CYV       0.039033
     65 H353        -3.1190     3.1780    -2.2760 hc         1 CYV       0.039033
     66 H341        -2.0150     4.3870     1.7610 hc         1 CYV       0.039033
     67 H342        -3.0400     5.4270     0.7610 hc         1 CYV       0.039033
     68 H343        -3.7050     3.9330     1.4470 hc         1 CYV       0.039033
     69 H291         0.5210     2.7050    -0.8060 hc         1 CYV       0.073700
     70 H292         1.3140     2.9060     0.7870 hc         1 CYV       0.073700
     71 H22          1.5270     0.4200     0.9510 hc         1 CYV       0.064700
     72 H231        -0.3100    -0.2690    -0.5860 hc         1 CYV       0.062700
     73 H232         0.5740     0.3650    -1.9550 hc         1 CYV       0.062700
     74 H24          2.0350    -1.4810    -2.0110 ha         1 CYV       0.179000
     75 H261        -0.1170    -3.3190     1.0370 hc         1 CYV       0.041033
     76 H262         1.2790    -2.6660     1.9070 hc         1 CYV       0.041033
     77 H263         0.0590    -1.5770     1.2510 hc         1 CYV       0.041033
     78 H271         2.7470    -3.6910    -1.4320 hc         1 CYV       0.041033
     79 H272         2.8930    -3.9220     0.3140 hc         1 CYV       0.041033
     80 H273         1.5070    -4.5980    -0.5570 hc         1 CYV       0.041033
     81 HN20         3.5800     0.2880     1.1820 hn         1 CYV       0.306500
     82 H12          5.4700     1.4130    -0.8650 h1         1 CYV       0.110700
     83 H51          7.0840    -0.3270    -0.1880 hc         1 CYV       0.056700
     84 H52          5.9120    -1.0240     0.9250 hc         1 CYV       0.056700
     85 H61          4.4160    -1.6130    -0.9380 hc         1 CYV       0.082700
     86 H62          5.5220    -0.8170    -2.1170 hc         1 CYV       0.082700
     87 H91          6.3790    -5.3560    -1.6940 h1         1 CYV       0.047200
     88 H92          7.2790    -4.9470    -0.2100 h1         1 CYV       0.047200
     89 H101         5.8470    -6.9560     0.1620 hc         1 CYV       0.046700
     90 H102         5.2780    -5.6090     1.1720 hc         1 CYV       0.046700
     91 H103         4.4020    -6.0420    -0.3180 hc         1 CYV       0.046700
     92 H191         5.8330     1.2480     2.1620 hc         1 CYV       0.049200
     93 H192         7.0280     1.8470     1.0280 hc         1 CYV       0.049200
     94 H13          4.2620     3.1550     1.4450 hc         1 CYV       0.076700
     95 H141         5.4460     3.6880     3.5080 hc         1 CYV       0.055700
     96 H142         6.9710     3.9300     2.6430 hc         1 CYV       0.055700
     97 H151         4.4080     5.6460     2.3990 h1         1 CYV       0.043200
     98 H152         6.0780     6.2120     2.6610 h1         1 CYV       0.043200
     99 HN16         5.9780     6.1870     0.1360 hn         1 CYV       0.329500
@<TRIPOS>BOND
     1     1     2 2   
     2     2     3 1   
     3     2     8 1   
     4     3     4 1   
     5     4     5 1   
     6     4     6 1   
     7     4     7 1   
     8     5    46 1   
     9     5    47 1   
    10     5    48 1   
    11     6    49 1   
    12     6    50 1   
    13     6    51 1   
    14     7    52 1   
    15     7    53 1   
    16     7    54 1   
    17     8     9 1   
    18     8    55 1   
    19     9    10 1   
    20     9    12 1   
    21     9    56 1   
    22    10    11 1   
    23    10    57 1   
    24    10    58 1   
    25    11    59 1   
    26    12    13 2   
    27    12    14 1   
    28    14    15 1   
    29    14    60 1   
    30    15    16 1   
    31    15    19 1   
    32    15    61 1   
    33    16    17 1   
    34    16    18 1   
    35    16    62 1   
    36    17    63 1   
    37    17    64 1   
    38    17    65 1   
    39    18    66 1   
    40    18    67 1   
    41    18    68 1   
    42    19    20 2   
    43    19    21 1   
    44    21    22 1   
    45    21    69 1   
    46    21    70 1   
    47    22    23 1   
    48    22    28 1   
    49    22    71 1   
    50    23    24 1   
    51    23    72 1   
    52    23    73 1   
    53    24    25 2   
    54    24    74 1   
    55    25    26 1   
    56    25    27 1   
    57    26    75 1   
    58    26    76 1   
    59    26    77 1   
    60    27    78 1   
    61    27    79 1   
    62    27    80 1   
    63    28    29 2   
    64    28    30 1   
    65    30    31 1   
    66    30    81 1   
    67    31    32 1   
    68    31    39 1   
    69    31    82 1   
    70    32    33 1   
    71    32    83 1   
    72    32    84 1   
    73    33    34 1   
    74    33    85 1   
    75    33    86 1   
    76    34    35 1   
    77    34    38 2   
    78    35    36 1   
    79    36    37 1   
    80    36    87 1   
    81    36    88 1   
    82    37    89 1   
    83    37    90 1   
    84    37    91 1   
    85    39    40 1   
    86    39    92 1   
    87    39    93 1   
    88    40    41 1   
    89    40    44 1   
    90    40    94 1   
    91    41    42 1   
    92    41    95 1   
    93    41    96 1   
    94    42    43 1   
    95    42    97 1   
    96    42    98 1   
    97    43    44 1   
    98    43    99 1   
    99    44    45 2   
@<TRIPOS>SUBSTRUCTURE
     1 CYV         1 TEMP              0 ****  ****    0 ROOT
