@<TRIPOS>MOLECULE
CYV
   99    99     1     0     0
SMALL
bcc


@<TRIPOS>ATOM
      1 O43         -7.9100    -0.4300     1.4230 o          1 CYV      -0.616000
      2 C42         -7.5350    -0.7880     0.3230 c          1 CYV       0.771100
      3 O44         -8.2960    -1.3490    -0.6160 os         1 CYV      -0.446900
      4 C46         -9.6860    -1.7030    -0.3880 c3         1 CYV       0.201800
      5 C49        -10.5320    -0.4670    -0.1040 c3         1 CYV      -0.108767
      6 C48        -10.1070    -2.3140    -1.7190 c3         1 CYV      -0.108767
      7 C47         -9.8010    -2.7440     0.7180 c3         1 CYV      -0.108767
      8 N41         -6.2700    -0.6520    -0.1200 ns         1 CYV      -0.557900
      9 C39         -5.2300    -0.0980     0.7030 c3         1 CYV       0.053700
     10 C40         -4.6640    -1.1030     1.7060 c3         1 CYV       0.119400
     11 O45         -4.0680    -2.1530     0.9890 oh         1 CYV      -0.586800
     12 C37         -4.1080     0.3990    -0.2040 c          1 CYV       0.672100
     13 O38         -3.9780     0.0090    -1.3520 o          1 CYV      -0.585100
     14 N36         -3.2910     1.2890     0.3810 ns         1 CYV      -0.554900
     15 C32         -2.0440     1.7130    -0.1920 c3         1 CYV       0.008700
     16 C33         -1.7280     3.1800     0.1580 c3         1 CYV      -0.063700
     17 C35         -2.8070     4.1060    -0.3910 c3         1 CYV      -0.091100
     18 C34         -1.5140     3.3940     1.6540 c3         1 CYV      -0.091100
     19 C30         -0.9150     0.7630     0.2100 c          1 CYV       0.557100
     20 O31         -1.1110    -0.1640     0.9560 o          1 CYV      -0.517100
     21 C29          0.4410     1.0700    -0.3760 c3         1 CYV      -0.175400
     22 C22          1.4390    -0.0830    -0.2870 c3         1 CYV      -0.128700
     23 C23          1.0840    -1.2420    -1.2280 c3         1 CYV      -0.029200
     24 C24          2.1280    -2.3230    -1.2170 c2         1 CYV      -0.179200
     25 C25          2.2340    -3.3100    -0.3240 c2         1 CYV      -0.112400
     26 C26          1.2850    -3.5170     0.8180 c3         1 CYV      -0.061400
     27 C27          3.3480    -4.3120    -0.3940 c3         1 CYV      -0.061400
     28 C21          2.8200     0.4510    -0.6310 c          1 CYV       0.664100
     29 O28          3.1120     0.7770    -1.7730 o          1 CYV      -0.592100
     30 N20          3.6590     0.5490     0.4140 ns         1 CYV      -0.578900
     31 C12          5.0310     1.0150     0.3590 c3         1 CYV       0.104700
     32 C5           5.9770    -0.0950     0.8160 c3         1 CYV      -0.080400
     33 C6           5.9070    -1.3180    -0.0820 c3         1 CYV      -0.141400
     34 C7           6.7760    -2.4540     0.3880 c          1 CYV       0.643100
     35 O11          6.7980    -3.4430    -0.4950 os         1 CYV      -0.428900
     36 C9           7.5270    -4.6330    -0.1620 c3         1 CYV       0.143400
     37 C10          7.3410    -5.6220    -1.2870 c3         1 CYV      -0.097100
     38 O8           7.3700    -2.4870     1.4380 o          1 CYV      -0.547000
     39 C19          5.1960     2.2640     1.2270 c3         1 CYV      -0.066400
     40 C13          4.3910     3.4700     0.7630 c5         1 CYV      -0.152700
     41 C14          4.2470     4.5770     1.8080 c5         1 CYV      -0.093400
     42 C15          4.0620     5.8450     0.9750 c5         1 CYV       0.102000
     43 N16          4.7850     5.5170    -0.2350 ns         1 CYV      -0.585900
     44 C17          4.9940     4.2040    -0.4260 c          1 CYV       0.704500
     45 O18          5.5620     3.7040    -1.3840 o          1 CYV      -0.616500
     46 H491       -10.3990     0.2840    -0.8850 hc         1 CYV       0.049256
     47 H492       -11.5860    -0.7500    -0.0990 hc         1 CYV       0.049256
     48 H493       -10.3030    -0.0160     0.8580 hc         1 CYV       0.049256
     49 H481        -9.5050    -3.1900    -1.9650 hc         1 CYV       0.049256
     50 H482       -11.1490    -2.6310    -1.6670 hc         1 CYV       0.049256
     51 H483       -10.0170    -1.5930    -2.5330 hc         1 CYV       0.049256
     52 H471        -9.5450    -2.3440     1.6970 hc         1 CYV       0.049256
     53 H472       -10.8280    -3.1090     0.7660 hc         1 CYV       0.049256
     54 H473        -9.1570    -3.6010     0.5100 hc         1 CYV       0.049256
     55 HN41        -6.0110    -1.0160    -1.0240 hn         1 CYV       0.357500
     56 H39         -5.6300     0.7470     1.2710 h1         1 CYV       0.081700
     57 H401        -3.9480    -0.5900     2.3580 h1         1 CYV       0.035700
     58 H402        -5.4840    -1.4510     2.3450 h1         1 CYV       0.035700
     59 HO45        -3.5290    -2.6670     1.5950 ho         1 CYV       0.410000
     60 HN36        -3.4580     1.5130     1.3500 hn         1 CYV       0.315500
     61 H32         -2.1320     1.6480    -1.2810 h1         1 CYV       0.103700
     62 H33         -0.7950     3.4300    -0.3550 hc         1 CYV       0.055700
     63 H351        -3.7790     3.9080     0.0630 hc         1 CYV       0.039033
     64 H352        -2.5530     5.1470    -0.1880 hc         1 CYV       0.039033
     65 H353        -2.9130     3.9910    -1.4710 hc         1 CYV       0.039033
     66 H341        -0.7240     2.7600     2.0590 hc         1 CYV       0.039033
     67 H342        -1.2280     4.4280     1.8460 hc         1 CYV       0.039033
     68 H343        -2.4200     3.2040     2.2330 hc         1 CYV       0.039033
     69 H291         0.3260     1.4140    -1.4070 hc         1 CYV       0.073700
     70 H292         0.8270     1.9360     0.1790 hc         1 CYV       0.073700
     71 H22          1.4390    -0.4600     0.7390 hc         1 CYV       0.064700
     72 H231         0.1070    -1.6380    -0.9450 hc         1 CYV       0.062700
     73 H232         0.9750    -0.8530    -2.2430 hc         1 CYV       0.062700
     74 H24          2.8840    -2.2590    -1.9940 ha         1 CYV       0.129000
     75 H261         0.8240    -4.5060     0.7630 hc         1 CYV       0.041033
     76 H262         1.8240    -3.4840     1.7690 hc         1 CYV       0.041033
     77 H263         0.4870    -2.7770     0.8670 hc         1 CYV       0.041033
     78 H271         4.0070    -4.1450    -1.2460 hc         1 CYV       0.041033
     79 H272         3.9580    -4.2790     0.5130 hc         1 CYV       0.041033
     80 H273         2.9540    -5.3290    -0.4640 hc         1 CYV       0.041033
     81 HN20         3.3260     0.2330     1.3120 hn         1 CYV       0.306500
     82 H12          5.2420     1.2670    -0.6790 h1         1 CYV       0.110700
     83 H51          6.9950     0.3010     0.8260 hc         1 CYV       0.056700
     84 H52          5.7390    -0.3680     1.8480 hc         1 CYV       0.056700
     85 H61          4.8800    -1.6960    -0.1440 hc         1 CYV       0.082700
     86 H62          6.1850    -1.0610    -1.1080 hc         1 CYV       0.082700
     87 H91          8.5830    -4.3930    -0.0260 h1         1 CYV       0.047200
     88 H92          7.1540    -5.0430     0.7790 h1         1 CYV       0.047200
     89 H101         7.8830    -6.5370    -1.0490 hc         1 CYV       0.046700
     90 H102         6.2910    -5.8840    -1.4210 hc         1 CYV       0.046700
     91 H103         7.7290    -5.2390    -2.2300 hc         1 CYV       0.046700
     92 H191         4.8950     2.0160     2.2510 hc         1 CYV       0.049200
     93 H192         6.2560     2.5270     1.2800 hc         1 CYV       0.049200
     94 H13          3.3900     3.1410     0.4540 hc         1 CYV       0.076700
     95 H141         3.4220     4.4090     2.4990 hc         1 CYV       0.055700
     96 H142         5.1650     4.6500     2.3960 hc         1 CYV       0.055700
     97 H151         3.0060     6.0410     0.7670 h1         1 CYV       0.043200
     98 H152         4.4790     6.7310     1.4540 h1         1 CYV       0.043200
     99 HN16         5.0060     6.2030    -0.9410 hn         1 CYV       0.329500
@<TRIPOS>BOND
     1     1     2 2   
     2     2     3 1   
     3     2     8 1   
     4     3     4 1   
     5     4     5 1   
     6     4     6 1   
     7     4     7 1   
     8     5    46 1   
     9     5    47 1   
    10     5    48 1   
    11     6    49 1   
    12     6    50 1   
    13     6    51 1   
    14     7    52 1   
    15     7    53 1   
    16     7    54 1   
    17     8     9 1   
    18     8    55 1   
    19     9    10 1   
    20     9    12 1   
    21     9    56 1   
    22    10    11 1   
    23    10    57 1   
    24    10    58 1   
    25    11    59 1   
    26    12    13 2   
    27    12    14 1   
    28    14    15 1   
    29    14    60 1   
    30    15    16 1   
    31    15    19 1   
    32    15    61 1   
    33    16    17 1   
    34    16    18 1   
    35    16    62 1   
    36    17    63 1   
    37    17    64 1   
    38    17    65 1   
    39    18    66 1   
    40    18    67 1   
    41    18    68 1   
    42    19    20 2   
    43    19    21 1   
    44    21    22 1   
    45    21    69 1   
    46    21    70 1   
    47    22    23 1   
    48    22    28 1   
    49    22    71 1   
    50    23    24 1   
    51    23    72 1   
    52    23    73 1   
    53    24    25 2   
    54    24    74 1   
    55    25    26 1   
    56    25    27 1   
    57    26    75 1   
    58    26    76 1   
    59    26    77 1   
    60    27    78 1   
    61    27    79 1   
    62    27    80 1   
    63    28    29 2   
    64    28    30 1   
    65    30    31 1   
    66    30    81 1   
    67    31    32 1   
    68    31    39 1   
    69    31    82 1   
    70    32    33 1   
    71    32    83 1   
    72    32    84 1   
    73    33    34 1   
    74    33    85 1   
    75    33    86 1   
    76    34    35 1   
    77    34    38 2   
    78    35    36 1   
    79    36    37 1   
    80    36    87 1   
    81    36    88 1   
    82    37    89 1   
    83    37    90 1   
    84    37    91 1   
    85    39    40 1   
    86    39    92 1   
    87    39    93 1   
    88    40    41 1   
    89    40    44 1   
    90    40    94 1   
    91    41    42 1   
    92    41    95 1   
    93    41    96 1   
    94    42    43 1   
    95    42    97 1   
    96    42    98 1   
    97    43    44 1   
    98    43    99 1   
    99    44    45 2   
@<TRIPOS>SUBSTRUCTURE
     1 CYV         1 TEMP              0 ****  ****    0 ROOT
