@<TRIPOS>MOLECULE
CYW
   22    21     1     0     0
SMALL
No Charge or Current Charge


@<TRIPOS>ATOM
      1 C            1.0240    14.6200     5.2020 c          1 CYW       0.726000
      2 N            1.6680    12.0790     5.6320 n8         1 CYW      -0.991200
      3 O            2.1430    14.9410     5.5870 o          1 CYW      -0.720500
      4 CA           0.6720    13.0750     5.0720 c3         1 CYW       0.024500
      5 CB          -0.7670    12.7830     5.5840 c3         1 CYW       0.093600
      6 SG          -0.9340    13.1080     7.4010 ss         1 CYW      -0.207600
      7 HN           1.4690    11.1430     5.2610 hn         1 CYW       0.385500
      8 C1          -2.7040    12.7780     7.7690 c          1 CYW       0.569700
      9 O1          -3.1670    13.1770     8.8330 o          1 CYW      -0.546100
     10 C2          -3.4680    11.6720     6.9540 c3         1 CYW       0.057300
     11 O2          -2.6920    10.4770     6.7180 oh         1 CYW      -0.628000
     12 C3          -4.0850    12.1670     5.6260 c3         1 CYW      -0.126100
     13 OXT          0.1740    15.4440     4.8850 o          1 CYW      -0.720500
     14 HNA          2.6010    12.3020     5.2650 hn         1 CYW       0.385500
     15 HA           0.6610    12.8810     3.9910 h1         1 CYW      -0.001300
     16 HB          -1.4730    13.4280     5.0480 h1         1 CYW       0.049700
     17 HBA         -1.0160    11.7390     5.3640 h1         1 CYW       0.049700
     18 H2          -4.3190    11.4010     7.5940 h1         1 CYW       0.039700
     19 HO2         -3.2930     9.8080     6.3220 ho         1 CYW       0.432000
     20 H3          -4.8160    11.4400     5.2530 hc         1 CYW       0.042367
     21 H3A         -4.6090    13.1180     5.7780 hc         1 CYW       0.042367
     22 H3B         -3.3350    12.3070     4.8420 hc         1 CYW       0.042367
@<TRIPOS>BOND
     1     1     3 1   
     2     1     4 1   
     3     1    13 1   
     4     2     4 1   
     5     2     7 1   
     6     2    14 1   
     7     4     5 1   
     8     4    15 1   
     9     5     6 1   
    10     5    16 1   
    11     5    17 1   
    12     6     8 1   
    13     8     9 2   
    14     8    10 1   
    15    10    11 1   
    16    10    12 1   
    17    10    18 1   
    18    11    19 1   
    19    12    20 1   
    20    12    21 1   
    21    12    22 1   
@<TRIPOS>SUBSTRUCTURE
     1 CYW         1 TEMP              0 ****  ****    0 ROOT
