@<TRIPOS>MOLECULE
CYW
   22    21     1     0     0
SMALL
abcg2


@<TRIPOS>ATOM
      1 C            1.2800    14.4040     5.3300 c          1 CYW       0.726000
      2 N            1.1140    11.9870     5.8180 n8         1 CYW      -0.991200
      3 O            2.4810    14.3280     5.6530 o          1 CYW      -0.720500
      4 CA           0.5660    13.0620     5.0140 c3         1 CYW       0.024500
      5 CB          -0.9440    13.1500     5.1790 c3         1 CYW       0.093600
      6 SG          -1.3590    13.7680     6.8440 ss         1 CYW      -0.207600
      7 HN           0.9650    11.0970     5.3610 hn         1 CYW       0.385500
      8 C1          -2.5980    12.7860     7.6200 c          1 CYW       0.569700
      9 O1          -2.9600    13.1660     8.7100 o          1 CYW      -0.546100
     10 C2          -3.2440    11.5700     6.9700 c3         1 CYW       0.057300
     11 O2          -2.2330    10.6920     6.5480 oh         1 CYW      -0.628000
     12 C3          -4.1880    12.0060     5.8560 c3         1 CYW      -0.126100
     13 OXT          0.5990    15.4370     5.1930 o          1 CYW      -0.720500
     14 HNA          2.1130    12.1240     5.8840 hn         1 CYW       0.385500
     15 HA           0.7210    12.8950     3.9330 h1         1 CYW      -0.001300
     16 HB          -1.3710    13.8460     4.4610 h1         1 CYW       0.049700
     17 HBA         -1.3960    12.1750     5.0250 h1         1 CYW       0.049700
     18 H2          -3.8470    11.1140     7.7660 h1         1 CYW       0.039700
     19 HO2         -2.6480     9.9560     6.0850 ho         1 CYW       0.432000
     20 H3          -4.6990    11.1340     5.4450 hc         1 CYW       0.042367
     21 H3A         -4.9520    12.6800     6.2430 hc         1 CYW       0.042367
     22 H3B         -3.6670    12.5100     5.0430 hc         1 CYW       0.042367
@<TRIPOS>BOND
     1     1     3 1   
     2     1     4 1   
     3     1    13 1   
     4     2     4 1   
     5     2     7 1   
     6     2    14 1   
     7     4     5 1   
     8     4    15 1   
     9     5     6 1   
    10     5    16 1   
    11     5    17 1   
    12     6     8 1   
    13     8     9 2   
    14     8    10 1   
    15    10    11 1   
    16    10    12 1   
    17    10    18 1   
    18    11    19 1   
    19    12    20 1   
    20    12    21 1   
    21    12    22 1   
@<TRIPOS>SUBSTRUCTURE
     1 CYW         1 TEMP              0 ****  ****    0 ROOT
