@<TRIPOS>MOLECULE
CYY
   25    25     1     0     0
SMALL
No Charge or Current Charge


@<TRIPOS>ATOM
      1 C1           1.1260    -0.3850     1.2110 c6         1 CYY       0.168500
      2 C2           1.6720     0.0670    -0.1730 c6         1 CYY      -0.124400
      3 C3           0.6880    -0.3270    -1.3000 c6         1 CYY       0.168500
      4 C4          -0.7190     0.2890    -1.0480 c6         1 CYY       0.167300
      5 C5          -1.2890    -0.2260     0.3040 c6         1 CYY       0.091300
      6 C6          -0.3280     0.1780     1.4650 c6         1 CYY       0.167300
      7 N1           2.0960     0.0080     2.2680 n8         1 CYY      -0.980200
      8 N3           1.1900     0.0700    -2.6390 n8         1 CYY      -0.980200
      9 O4          -1.5660    -0.0440    -2.1560 oh         1 CYY      -0.710500
     10 O5          -2.6100     0.3020     0.5330 oh         1 CYY      -0.673000
     11 O6          -0.8910    -0.2860     2.7060 oh         1 CYY      -0.710500
     12 H1           1.0770    -1.4850     1.2130 h1         1 CYY       0.048200
     13 H21          1.8290     1.1560    -0.1790 hc         1 CYY       0.052200
     14 H22          2.6500    -0.3970    -0.3580 hc         1 CYY       0.052200
     15 H3           0.5880    -1.4240    -1.3100 h1         1 CYY       0.048200
     16 H4          -0.6090     1.3830    -0.9860 h1         1 CYY       0.050700
     17 H5          -1.3330    -1.3250     0.2570 h1         1 CYY       0.052700
     18 H6          -0.2660     1.2770     1.4800 h1         1 CYY       0.050700
     19 HN11         3.0430    -0.2350     1.9560 hn         1 CYY       0.397250
     20 HN12         2.1180     1.0310     2.3360 hn         1 CYY       0.397250
     21 HN31         1.5120     1.0450    -2.5990 hn         1 CYY       0.397250
     22 HN32         2.0540    -0.4510    -2.8360 hn         1 CYY       0.397250
     23 HO4         -0.9170    -0.1030    -2.9030 ho         1 CYY       0.511000
     24 HO5         -3.0420     0.3040    -0.3540 ho         1 CYY       0.452000
     25 HO6         -1.8630    -0.1700     2.5800 ho         1 CYY       0.511000
@<TRIPOS>BOND
     1     1     2 1   
     2     1     6 1   
     3     1     7 1   
     4     1    12 1   
     5     2     3 1   
     6     2    13 1   
     7     2    14 1   
     8     3     4 1   
     9     3     8 1   
    10     3    15 1   
    11     4     5 1   
    12     4     9 1   
    13     4    16 1   
    14     5     6 1   
    15     5    10 1   
    16     5    17 1   
    17     6    11 1   
    18     6    18 1   
    19     7    19 1   
    20     7    20 1   
    21     8    21 1   
    22     8    22 1   
    23     9    23 1   
    24    10    24 1   
    25    11    25 1   
@<TRIPOS>SUBSTRUCTURE
     1 CYY         1 TEMP              0 ****  ****    0 ROOT
