@<TRIPOS>MOLECULE
CYY
   25    25     1     0     0
SMALL
abcg2


@<TRIPOS>ATOM
      1 C1           1.0600    -0.2860     1.2650 c6         1 CYY       0.168500
      2 C2           1.7150     0.1160    -0.0580 c6         1 CYY      -0.124400
      3 C3           0.9270    -0.3210    -1.2860 c6         1 CYY       0.168500
      4 C4          -0.4750     0.2610    -1.2050 c6         1 CYY       0.167300
      5 C5          -1.1500    -0.1810     0.0900 c6         1 CYY       0.091300
      6 C6          -0.3600     0.2650     1.3180 c6         1 CYY       0.167300
      7 N1           1.8080     0.1400     2.4380 n8         1 CYY      -0.980200
      8 N3           1.5930     0.1520    -2.4900 n8         1 CYY      -0.980200
      9 O4          -1.2070    -0.1680    -2.3320 oh         1 CYY      -0.710500
     10 O5          -2.4520     0.3760     0.1850 oh         1 CYY      -0.673000
     11 O6          -0.9880    -0.1680     2.4990 oh         1 CYY      -0.710500
     12 H1           0.9970    -1.3810     1.3030 h1         1 CYY       0.048200
     13 H21          1.8360     1.2060    -0.0860 hc         1 CYY       0.052200
     14 H22          2.7220    -0.3090    -0.1000 hc         1 CYY       0.052200
     15 H3           0.8340    -1.4210    -1.2600 h1         1 CYY       0.048200
     16 H4          -0.3840     1.3590    -1.2000 h1         1 CYY       0.050700
     17 H5          -1.2060    -1.2790     0.0980 h1         1 CYY       0.052700
     18 H6          -0.2940     1.3680     1.2980 h1         1 CYY       0.050700
     19 HN11         2.7400    -0.2570     2.3940 hn         1 CYY       0.397250
     20 HN12         1.9430     1.1440     2.4010 hn         1 CYY       0.397250
     21 HN31         2.5170    -0.2580    -2.5410 hn         1 CYY       0.397250
     22 HN32         1.0990    -0.1880    -3.3060 hn         1 CYY       0.397250
     23 HO4         -2.0500     0.2960    -2.3370 ho         1 CYY       0.511000
     24 HO5         -3.0990    -0.2940    -0.0510 ho         1 CYY       0.452000
     25 HO6         -1.9170     0.0800     2.4310 ho         1 CYY       0.511000
@<TRIPOS>BOND
     1     1     2 1   
     2     1     6 1   
     3     1     7 1   
     4     1    12 1   
     5     2     3 1   
     6     2    13 1   
     7     2    14 1   
     8     3     4 1   
     9     3     8 1   
    10     3    15 1   
    11     4     5 1   
    12     4     9 1   
    13     4    16 1   
    14     5     6 1   
    15     5    10 1   
    16     5    17 1   
    17     6    11 1   
    18     6    18 1   
    19     7    19 1   
    20     7    20 1   
    21     8    21 1   
    22     8    22 1   
    23     9    23 1   
    24    10    24 1   
    25    11    25 1   
@<TRIPOS>SUBSTRUCTURE
     1 CYY         1 TEMP              0 ****  ****    0 ROOT
