@<TRIPOS>MOLECULE
CYZ
   40    43     1     0     0
SMALL
bcc


@<TRIPOS>ATOM
      1 C1           0.5520     0.4960    -3.1030 c5         1 CYZ      -0.091700
      2 C2          -0.3210     0.8190    -4.3510 c5         1 CYZ      -0.022500
      3 C3          -0.2130    -0.3680    -5.2830 c2         1 CYZ      -0.178200
      4 C4           1.0270    -0.3750    -5.7770 c2         1 CYZ      -0.186200
      5 C5           1.7590     0.8090    -5.1860 c5         1 CYZ      -0.048500
      6 C6           1.9900     0.4640    -3.6890 c5         1 CYZ      -0.078400
      7 C7           0.6060     1.8120    -5.0660 c5         1 CYZ      -0.078400
      8 C8           0.1880    -0.8110    -2.4070 c6         1 CYZ       0.506700
      9 N1          -1.2280    -0.9370    -2.1010 n7         1 CYZ      -0.799100
     10 S1          -1.8350     0.0190    -0.8980 sy         1 CYZ       1.309200
     11 C9          -0.6260    -0.1800     0.3600 ca         1 CYZ      -0.422500
     12 C10          0.6470    -0.6870     0.0290 ca         1 CYZ       0.330600
     13 N2           0.9980    -1.0320    -1.2190 nu         1 CYZ      -0.802600
     14 C11         -0.9640     0.1270     1.6670 ca         1 CYZ       0.127000
     15 C12         -0.0520    -0.0370     2.6920 ca         1 CYZ      -0.348500
     16 C13          1.2230    -0.5360     2.3760 ca         1 CYZ       0.214400
     17 C14          1.5630    -0.8580     1.0880 ca         1 CYZ      -0.254000
     18 CL           2.4110    -0.7750     3.5960 cl         1 CYZ      -0.058400
     19 S2          -0.5320     0.4120     4.3300 sy         1 CYZ       1.299200
     20 O1          -3.0920    -0.5650    -0.4670 o          1 CYZ      -0.594300
     21 O2          -1.8350     1.4000    -1.3470 o          1 CYZ      -0.594300
     22 O3          -1.8980     0.9100     4.2400 o          1 CYZ      -0.612800
     23 O4           0.4780     1.2720     4.9230 o          1 CYZ      -0.612800
     24 N3          -0.4490    -1.0280     5.1190 n8         1 CYZ      -0.910700
     25 H11A         0.4710     1.3200    -2.3920 hc         1 CYZ       0.086700
     26 H21         -1.3260     1.1550    -4.1080 hc         1 CYZ       0.097700
     27 H31A        -0.9770    -1.1210    -5.4240 ha         1 CYZ       0.145000
     28 H41          1.4800    -1.1360    -6.3980 ha         1 CYZ       0.141000
     29 H51          2.6560     1.1330    -5.7120 hc         1 CYZ       0.075700
     30 H61          2.6250     1.2080    -3.2080 hc         1 CYZ       0.045200
     31 H62          2.4830    -0.5040    -3.5730 hc         1 CYZ       0.045200
     32 H71          0.8540     2.6920    -4.4670 hc         1 CYZ       0.060200
     33 H72          0.2140     2.1340    -6.0320 hc         1 CYZ       0.060200
     34 H81          0.4040    -1.6340    -3.0890 h2         1 CYZ       0.081700
     35 HN1         -1.5160    -1.9030    -1.9700 hn         1 CYZ       0.433800
     36 HN2          1.9160    -1.4250    -1.3570 hn         1 CYZ       0.457800
     37 H11         -1.9570     0.4920     1.8910 ha         1 CYZ       0.176000
     38 H14          2.5490    -1.2460     0.8720 ha         1 CYZ       0.149000
     39 H31         -1.2770    -1.6000     4.9970 hn         1 CYZ       0.425800
     40 H32         -0.2170    -0.9170     6.1000 hn         1 CYZ       0.425800
@<TRIPOS>BOND
     1     1     2 1   
     2     1     6 1   
     3     1     8 1   
     4     1    25 1   
     5     2     3 1   
     6     2     7 1   
     7     2    26 1   
     8     3     4 2   
     9     3    27 1   
    10     4     5 1   
    11     4    28 1   
    12     5     6 1   
    13     5     7 1   
    14     5    29 1   
    15     6    30 1   
    16     6    31 1   
    17     7    32 1   
    18     7    33 1   
    19     8     9 1   
    20     8    13 1   
    21     8    34 1   
    22     9    10 1   
    23     9    35 1   
    24    10    11 1   
    25    10    20 2   
    26    10    21 2   
    27    11    12 ar  
    28    11    14 ar  
    29    12    13 1   
    30    12    17 ar  
    31    13    36 1   
    32    14    15 ar  
    33    14    37 1   
    34    15    16 ar  
    35    15    19 1   
    36    16    17 ar  
    37    16    18 1   
    38    17    38 1   
    39    19    22 2   
    40    19    23 2   
    41    19    24 1   
    42    24    39 1   
    43    24    40 1   
@<TRIPOS>SUBSTRUCTURE
     1 CYZ         1 TEMP              0 ****  ****    0 ROOT
