@<TRIPOS>MOLECULE
CYZ
   40    43     1     0     0
SMALL
No Charge or Current Charge


@<TRIPOS>ATOM
      1 C1           0.3850     0.2070    -2.8680 c5         1 CYZ      -0.091700
      2 C2          -0.2830     0.8740    -4.1250 c5         1 CYZ      -0.022500
      3 C3           0.0690     0.0450    -5.3500 c2         1 CYZ      -0.228200
      4 C4           1.3670     0.2220    -5.5980 c2         1 CYZ      -0.236200
      5 C5           1.9100     1.1690    -4.5430 c5         1 CYZ      -0.048500
      6 C6           1.9260     0.3790    -3.1930 c5         1 CYZ      -0.078400
      7 C7           0.6770     2.0790    -4.3030 c5         1 CYZ      -0.078400
      8 C8          -0.0670    -1.2620    -2.5840 c6         1 CYZ       0.506700
      9 N1          -1.4630    -1.4680    -2.3570 n7         1 CYZ      -0.854300
     10 S1          -2.1400    -0.7040    -1.0440 sy         1 CYZ       1.167600
     11 C9          -0.8380    -0.6230     0.1340 ca         1 CYZ      -0.422500
     12 C10          0.3620    -1.2170    -0.1710 ca         1 CYZ       0.469000
     13 N2           0.5150    -1.8100    -1.3990 nu         1 CYZ      -0.996200
     14 C11         -1.0330     0.0200     1.3640 ca         1 CYZ       0.145000
     15 C12          0.0210     0.0560     2.2960 ca         1 CYZ      -0.348500
     16 C13          1.2480    -0.5640     1.9820 ca         1 CYZ       0.306000
     17 C14          1.4100    -1.1990     0.7430 ca         1 CYZ      -0.236000
     18 Cl           2.6220    -0.6060     3.0900 cl         1 CYZ      -0.150000
     19 S2          -0.2460     0.8860     3.8490 sy         1 CYZ       1.157600
     20 O1          -3.1460    -1.6370    -0.5370 o          1 CYZ      -0.523500
     21 O2          -2.5160     0.6480    -1.4650 o          1 CYZ      -0.523500
     22 O3          -1.6010     1.4250     3.9210 o          1 CYZ      -0.542000
     23 O4           0.9180     1.6770     4.2360 o          1 CYZ      -0.542000
     24 N3          -0.2520    -0.3330     4.9260 n8         1 CYZ      -1.021100
     25 H11A         0.1470     0.7970    -1.9780 hc         1 CYZ       0.086700
     26 H21         -1.3440     1.1320    -4.0240 hc         1 CYZ       0.097700
     27 H31A        -0.6120    -0.5820    -5.9310 ha         1 CYZ       0.195000
     28 H41          1.9290    -0.2370    -6.4150 ha         1 CYZ       0.191000
     29 H51          2.8380     1.6880    -4.8110 hc         1 CYZ       0.075700
     30 H61          2.4350     0.9430    -2.4020 hc         1 CYZ       0.045200
     31 H62          2.4510    -0.5780    -3.2910 hc         1 CYZ       0.045200
     32 H71          0.7580     2.7330    -3.4250 hc         1 CYZ       0.060200
     33 H72          0.4270     2.6980    -5.1740 hc         1 CYZ       0.060200
     34 H81          0.2140    -1.8790    -3.4550 h2         1 CYZ       0.081700
     35 HN1         -1.4960    -2.4170    -2.0070 hn         1 CYZ       0.489000
     36 HN2          1.4240    -2.2540    -1.5260 hn         1 CYZ       0.513000
     37 H11         -1.9960     0.4840     1.5870 ha         1 CYZ       0.158000
     38 H14          2.3550    -1.6710     0.4990 ha         1 CYZ       0.131000
     39 H31         -1.0870    -0.0990     5.4590 hn         1 CYZ       0.481000
     40 H32          0.4910    -0.0230     5.5470 hn         1 CYZ       0.481000
@<TRIPOS>BOND
     1     1     2 1   
     2     1     6 1   
     3     1     8 1   
     4     1    25 1   
     5     2     3 1   
     6     2     7 1   
     7     2    26 1   
     8     3     4 2   
     9     3    27 1   
    10     4     5 1   
    11     4    28 1   
    12     5     6 1   
    13     5     7 1   
    14     5    29 1   
    15     6    30 1   
    16     6    31 1   
    17     7    32 1   
    18     7    33 1   
    19     8     9 1   
    20     8    13 1   
    21     8    34 1   
    22     9    10 1   
    23     9    35 1   
    24    10    11 1   
    25    10    20 2   
    26    10    21 2   
    27    11    12 ar  
    28    11    14 ar  
    29    12    13 1   
    30    12    17 ar  
    31    13    36 1   
    32    14    15 ar  
    33    14    37 1   
    34    15    16 ar  
    35    15    19 1   
    36    16    17 ar  
    37    16    18 1   
    38    17    38 1   
    39    19    22 2   
    40    19    23 2   
    41    19    24 1   
    42    24    39 1   
    43    24    40 1   
@<TRIPOS>SUBSTRUCTURE
     1 CYZ         1 TEMP              0 ****  ****    0 ROOT
