@<TRIPOS>MOLECULE
CZ0
   29    31     1     0     0
SMALL
No Charge or Current Charge


@<TRIPOS>ATOM
      1 C1          -2.8840     2.1140    -0.0990 ca         1 CZ0      -0.216000
      2 N1          -2.7650    -1.6500    -0.0310 no         1 CZ0       0.706200
      3 C2          -3.2780     0.7690    -0.0820 ca         1 CZ0       0.228100
      4 O2          -2.9720    -2.1980    -1.1210 o          1 CZ0      -0.386500
      5 C3          -2.3110    -0.2490    -0.0520 ca         1 CZ0      -0.231200
      6 O3          -2.7250    -2.2480     1.0520 o          1 CZ0      -0.386500
      7 C4          -1.5210     2.4500    -0.0860 ca         1 CZ0      -0.004000
      8 C5          -0.5440     1.4370    -0.0570 ca         1 CZ0      -0.110000
      9 C6          -0.9330     0.0780    -0.0400 ca         1 CZ0       0.082000
     10 C7           0.0700    -0.9150    -0.0170 ca         1 CZ0      -0.137000
     11 C8           0.8190     1.7900    -0.0470 ca         1 CZ0      -0.022000
     12 C9           1.8170     0.7930    -0.0210 ca         1 CZ0      -0.143800
     13 C10          1.4260    -0.5580    -0.0060 ca         1 CZ0       0.190100
     14 O11          2.3670    -1.5570     0.0170 os         1 CZ0      -0.334200
     15 C12          3.7160    -1.3360     0.0300 c          1 CZ0       0.674300
     16 C13          4.1390     0.0710     0.0160 cc         1 CZ0      -0.319200
     17 C14          3.2500     1.1200    -0.0090 cd         1 CZ0       0.032600
     18 O15         -4.6060     0.4600    -0.0880 oh         1 CZ0      -0.495100
     19 O16          4.5170    -2.2580     0.0510 o          1 CZ0      -0.468000
     20 C17          3.7490     2.5460    -0.0230 c3         1 CZ0      -0.065900
     21 H1          -3.6270     2.9080    -0.1210 ha         1 CZ0       0.129000
     22 H4          -1.2270     3.4970    -0.0990 ha         1 CZ0       0.124000
     23 H7          -0.1800    -1.9710    -0.0070 ha         1 CZ0       0.164000
     24 H8           1.0930     2.8420    -0.0590 ha         1 CZ0       0.122000
     25 H13          5.2110     0.2220     0.0260 ha         1 CZ0       0.215000
     26 HO15        -5.1170     1.2970    -0.1100 ho         1 CZ0       0.485000
     27 H17          3.3870     3.0970     0.8530 hc         1 CZ0       0.056033
     28 H17A         4.8440     2.5950    -0.0100 hc         1 CZ0       0.056033
     29 H17B         3.4080     3.0730    -0.9220 hc         1 CZ0       0.056033
@<TRIPOS>BOND
     1     1     3 ar  
     2     1     7 ar  
     3     1    21 1   
     4     2     4 1   
     5     2     5 1   
     6     2     6 1   
     7     3     5 ar  
     8     3    18 1   
     9     5     9 ar  
    10     7     8 ar  
    11     7    22 1   
    12     8     9 ar  
    13     8    11 ar  
    14     9    10 ar  
    15    10    13 ar  
    16    10    23 1   
    17    11    12 ar  
    18    11    24 1   
    19    12    13 ar  
    20    12    17 1   
    21    13    14 1   
    22    14    15 1   
    23    15    16 1   
    24    15    19 2   
    25    16    17 2   
    26    16    25 1   
    27    17    20 1   
    28    18    26 1   
    29    20    27 1   
    30    20    28 1   
    31    20    29 1   
@<TRIPOS>SUBSTRUCTURE
     1 CZ0         1 TEMP              0 ****  ****    0 ROOT
