@<TRIPOS>MOLECULE
CZ0
   29    31     1     0     0
SMALL
abcg2


@<TRIPOS>ATOM
      1 C1          -2.8350     2.1130    -0.1370 ca         1 CZ0      -0.216000
      2 N1          -2.7410    -1.6090    -0.0300 no         1 CZ0       0.706200
      3 C2          -3.2460     0.7590    -0.1320 ca         1 CZ0       0.228100
      4 O2          -3.5130    -1.9760    -0.8820 o          1 CZ0      -0.386500
      5 C3          -2.2880    -0.2330    -0.0690 ca         1 CZ0      -0.231200
      6 O3          -2.3220    -2.3160     0.8580 o          1 CZ0      -0.386500
      7 C4          -1.5140     2.4280    -0.1000 ca         1 CZ0      -0.004000
      8 C5          -0.5150     1.4250    -0.0520 ca         1 CZ0      -0.110000
      9 C6          -0.8970     0.0550    -0.0240 ca         1 CZ0       0.082000
     10 C7           0.1160    -0.9220     0.0030 ca         1 CZ0      -0.137000
     11 C8           0.8430     1.7720    -0.0370 ca         1 CZ0      -0.022000
     12 C9           1.8310     0.8140    -0.0060 ca         1 CZ0      -0.143800
     13 C10          1.4310    -0.5400     0.0080 ca         1 CZ0       0.190100
     14 O11          2.3530    -1.5310     0.0280 os         1 CZ0      -0.334200
     15 C12          3.6910    -1.2980     0.0370 c          1 CZ0       0.674300
     16 C13          4.1200     0.0840     0.0260 cc         1 CZ0      -0.319200
     17 C14          3.2490     1.1120     0.0050 cd         1 CZ0       0.032600
     18 O15         -4.5330     0.4290    -0.1470 oh         1 CZ0      -0.495100
     19 O16          4.4170    -2.2580     0.0540 o          1 CZ0      -0.468000
     20 C17          3.7100     2.5290    -0.0090 c3         1 CZ0      -0.065900
     21 H1          -3.5850     2.8930    -0.1690 ha         1 CZ0       0.129000
     22 H4          -1.2120     3.4680    -0.1090 ha         1 CZ0       0.124000
     23 H7          -0.1060    -1.9790     0.0140 ha         1 CZ0       0.164000
     24 H8           1.1040     2.8230    -0.0570 ha         1 CZ0       0.122000
     25 H13          5.1880     0.2520     0.0340 ha         1 CZ0       0.215000
     26 HO15        -5.0910     1.2160    -0.1310 ho         1 CZ0       0.485000
     27 H17          3.3290     3.0700     0.8600 hc         1 CZ0       0.056033
     28 H17A         4.7960     2.5900     0.0010 hc         1 CZ0       0.056033
     29 H17B         3.3450     3.0470    -0.8970 hc         1 CZ0       0.056033
@<TRIPOS>BOND
     1     1     3 ar  
     2     1     7 ar  
     3     1    21 1   
     4     2     4 1   
     5     2     5 1   
     6     2     6 1   
     7     3     5 ar  
     8     3    18 1   
     9     5     9 ar  
    10     7     8 ar  
    11     7    22 1   
    12     8     9 ar  
    13     8    11 ar  
    14     9    10 ar  
    15    10    13 ar  
    16    10    23 1   
    17    11    12 ar  
    18    11    24 1   
    19    12    13 ar  
    20    12    17 1   
    21    13    14 1   
    22    14    15 1   
    23    15    16 1   
    24    15    19 2   
    25    16    17 2   
    26    16    25 1   
    27    17    20 1   
    28    18    26 1   
    29    20    27 1   
    30    20    28 1   
    31    20    29 1   
@<TRIPOS>SUBSTRUCTURE
     1 CZ0         1 TEMP              0 ****  ****    0 ROOT
