@<TRIPOS>MOLECULE
CZ3
  128   133     1     0     0
SMALL
No Charge or Current Charge


@<TRIPOS>ATOM
      1 CAU         22.6200    16.7960    61.7860 ca         1 CZ3      -0.051500
      2 CAQ         21.5050    17.5650    61.4100 ca         1 CZ3      -0.124500
      3 CAO         21.6670    18.9180    61.0630 ca         1 CZ3      -0.081000
      4 CAR         22.9470    19.4980    61.0810 ca         1 CZ3      -0.124500
      5 CAV         24.0620    18.7290    61.4560 ca         1 CZ3      -0.051500
      6 CCA         23.9010    17.3830    61.8320 ca         1 CZ3      -0.138000
      7 SBU         25.3500    16.4210    62.2890 ss         1 CZ3      -0.079300
      8 CCC         24.7830    16.0980    63.9440 cc         1 CZ3       0.473800
      9 NBK         23.7830    16.6640    64.5820 nd         1 CZ3      -0.389500
     10 NBI         23.7650    16.0640    65.8220 nd         1 CZ3      -0.051500
     11 NBM         24.7120    15.1650    65.9480 nc         1 CZ3      -0.217800
     12 NCO         25.3690    15.1680    64.7570 na         1 CZ3      -0.052700
     13 CBG         26.5240    14.2870    64.4780 c3         1 CZ3       0.063600
     14 CCI         26.4640    12.8500    65.0640 c5         1 CZ3       0.091700
     15 CBC         26.7120    12.8080    66.6040 c5         1 CZ3      -0.092900
     16 CBA         27.3870    11.4330    66.7970 c5         1 CZ3      -0.096900
     17 CBE         28.4070    11.4520    65.6390 c5         1 CZ3       0.106000
     18 NCM         27.5710    12.0030    64.5470 n          1 CZ3      -0.405800
     19 CBY         27.4910    11.3900    63.2740 c          1 CZ3       0.609100
     20 OAI         26.4500    11.4660    62.6270 o          1 CZ3      -0.598600
     21 CCK         28.7540    10.7030    62.6630 c3         1 CZ3       0.042700
     22 NBO         28.3440     9.7510    61.5980 ns         1 CZ3      -0.508400
     23 C           29.1360     8.7480    61.0750 c          1 CZ3       0.586100
     24 O           30.2740     8.5600    61.4880 o          1 CZ3      -0.597600
     25 CA          28.5060     7.8920    59.9120 c3         1 CZ3       0.102500
     26 CB          27.3600     8.6100    59.1500 c3         1 CZ3      -0.108600
     27 N           28.0420     6.5270    60.3380 n7         1 CZ3      -0.843900
     28 CAA         27.0580     6.4600    61.4430 c3         1 CZ3       0.141100
     29 CCG         29.7810    11.7490    62.1400 c3         1 CZ3       0.174300
     30 CAE         29.2000    12.6610    61.0260 c3         1 CZ3      -0.128600
     31 OBS         30.2070    12.5430    63.2710 os         1 CZ3      -0.453000
     32 CAY         31.2530    13.5140    63.0580 c3         1 CZ3       0.256200
     33 CAM         30.6460    14.8370    62.8590 c1         1 CZ3      -0.135600
     34 CAK         30.0950    15.9020    62.6670 cg         1 CZ3      -0.026500
     35 CAL         29.4550    17.0870    62.4540 cg         1 CZ3      -0.026500
     36 CAN         28.8730    18.1410    62.2970 c1         1 CZ3      -0.135600
     37 CAZ         28.1410    19.4070    62.2110 c3         1 CZ3       0.256200
     38 OBT         27.2590    19.4280    63.3450 os         1 CZ3      -0.453000
     39 CCH         26.4820    20.6110    63.6090 c3         1 CZ3       0.174300
     40 CAF         27.4410    21.7750    63.9600 c3         1 CZ3      -0.128600
     41 CCL         25.4930    20.2130    64.7440 c3         1 CZ3       0.042700
     42 NBP         24.6120    21.3400    65.1460 ns         1 CZ3      -0.508400
     43 CBX         23.2860    21.2490    65.5230 c          1 CZ3       0.586100
     44 OAH         22.6160    22.2720    65.5550 o          1 CZ3      -0.597600
     45 CCF         22.7180    19.8610    66.0090 c3         1 CZ3       0.102500
     46 CAD         21.6710    19.3270    65.0090 c3         1 CZ3      -0.108600
     47 NBR         22.0990    19.9060    67.3710 n7         1 CZ3      -0.843900
     48 CAB         23.0290    20.1790    68.4860 c3         1 CZ3       0.141100
     49 CBZ         26.2530    19.5180    65.9270 c          1 CZ3       0.609100
     50 OAJ         26.3930    18.3020    65.9130 o          1 CZ3      -0.598600
     51 NCN         26.7760    20.2350    67.0380 n          1 CZ3      -0.405800
     52 CBF         26.5130    21.6570    67.3650 c5         1 CZ3       0.106000
     53 CBB         27.2600    21.8280    68.7100 c5         1 CZ3      -0.096900
     54 CBD         28.4810    20.9010    68.5010 c5         1 CZ3      -0.092900
     55 CCJ         27.8220    19.6280    67.8960 c5         1 CZ3       0.091700
     56 CBH         27.2560    18.6440    68.9540 c3         1 CZ3       0.063600
     57 NCP         28.2930    17.8380    69.6220 na         1 CZ3      -0.052700
     58 NBN         28.7230    18.1130    70.8810 nc         1 CZ3      -0.217800
     59 NBJ         29.6740    17.2380    71.1120 nd         1 CZ3      -0.051500
     60 NBL         29.8890    16.4040    70.0350 nd         1 CZ3      -0.389500
     61 CCD         29.0030    16.7750    69.1360 cc         1 CZ3       0.473800
     62 SBV         28.7840    16.1640    67.4800 ss         1 CZ3      -0.079300
     63 CCB         29.8680    14.7440    67.6900 ca         1 CZ3      -0.138000
     64 CAW         29.5710    13.7290    68.6230 ca         1 CZ3      -0.051500
     65 CAS         30.4050    12.6020    68.7270 ca         1 CZ3      -0.124500
     66 CAP         31.5290    12.4780    67.8940 ca         1 CZ3      -0.081000
     67 CAT         31.8180    13.4800    66.9520 ca         1 CZ3      -0.124500
     68 CAX         30.9850    14.6070    66.8450 ca         1 CZ3      -0.051500
     69 HAU         22.4880    15.7480    62.0470 ha         1 CZ3       0.130000
     70 HAQ         20.5170    17.1130    61.3860 ha         1 CZ3       0.117000
     71 HAO         20.8030    19.5120    60.7710 ha         1 CZ3       0.115000
     72 HAR         23.0760    20.5400    60.8000 ha         1 CZ3       0.117000
     73 HAV         25.0520    19.1750    61.4510 ha         1 CZ3       0.130000
     74 HBG         26.6220    14.1910    63.3910 h1         1 CZ3       0.095200
     75 HBGA        27.4340    14.7840    64.8370 h1         1 CZ3       0.095200
     76 HCI         25.4920    12.4000    64.8170 h1         1 CZ3       0.084700
     77 HBC         27.3720    13.6180    66.9250 hc         1 CZ3       0.062950
     78 HBCA        25.7850    12.8990    67.1810 hc         1 CZ3       0.062950
     79 HBA         27.8650    11.3250    67.7770 hc         1 CZ3       0.060700
     80 HBAA        26.6690    10.6120    66.6850 hc         1 CZ3       0.060700
     81 HBE         29.2560    12.1160    65.8520 h1         1 CZ3       0.052700
     82 HBEA        28.7890    10.4440    65.4400 h1         1 CZ3       0.052700
     83 HCK         29.2400    10.1190    63.4510 h1         1 CZ3       0.088700
     84 HNBO        27.4080     9.8430    61.2180 hn         1 CZ3       0.314000
     85 HA          29.3250     7.7730    59.1890 h1         1 CZ3       0.086200
     86 HB          26.4870     8.7870    59.7900 hc         1 CZ3       0.044533
     87 HBB         27.7050     9.5790    58.7690 hc         1 CZ3       0.044533
     88 HBD         27.0350     8.0120    58.2910 hc         1 CZ3       0.044533
     89 HN          27.6500     6.0400    59.5200 hn         1 CZ3       0.420000
     90 HAA         27.4430     6.9490    62.3480 h1         1 CZ3       0.033700
     91 HAAA        26.1120     6.9450    61.1660 h1         1 CZ3       0.033700
     92 HAAB        26.8360     5.4150    61.6950 h1         1 CZ3       0.033700
     93 HCG         30.6410    11.2060    61.7270 h1         1 CZ3       0.038700
     94 HAE         28.4390    13.3410    61.4260 hc         1 CZ3       0.052367
     95 HAEA        29.9880    13.2580    60.5540 hc         1 CZ3       0.052367
     96 HAEB        28.7370    12.0610    60.2340 hc         1 CZ3       0.052367
     97 HAY         31.9020    13.5660    63.9410 h1         1 CZ3       0.065700
     98 HAYA        31.8830    13.2550    62.1960 h1         1 CZ3       0.065700
     99 HAZ         28.8660    20.2310    62.2350 h1         1 CZ3       0.065700
    100 HAZA        27.5810    19.4510    61.2670 h1         1 CZ3       0.065700
    101 HCH         25.8960    20.8960    62.7250 h1         1 CZ3       0.038700
    102 HAF         26.8840    22.6490    64.3140 hc         1 CZ3       0.052367
    103 HAFA        28.1570    21.4780    64.7350 hc         1 CZ3       0.052367
    104 HAFB        28.0040    22.1000    63.0770 hc         1 CZ3       0.052367
    105 HCL         24.8520    19.4330    64.3130 h1         1 CZ3       0.088700
    106 HNBP        24.9170    22.2800    64.9210 hn         1 CZ3       0.314000
    107 HCF         23.5420    19.1390    66.0260 h1         1 CZ3       0.086200
    108 HAD         20.8130    20.0050    64.9350 hc         1 CZ3       0.044533
    109 HADA        22.1160    19.2260    64.0130 hc         1 CZ3       0.044533
    110 HADB        21.3070    18.3390    65.3190 hc         1 CZ3       0.044533
    111 HNBR        21.3730    20.6360    67.3700 hn         1 CZ3       0.420000
    112 HAB         23.8440    19.4420    68.5060 h1         1 CZ3       0.033700
    113 HABA        23.4710    21.1790    68.3950 h1         1 CZ3       0.033700
    114 HABB        22.5020    20.1290    69.4480 h1         1 CZ3       0.033700
    115 HBF         26.9270    22.3260    66.6020 h1         1 CZ3       0.052700
    116 HBFA        25.4450    21.8740    67.4850 h1         1 CZ3       0.052700
    117 HBBA        27.5450    22.8690    68.8990 hc         1 CZ3       0.060700
    118 HBBB        26.6420    21.5030    69.5550 hc         1 CZ3       0.060700
    119 HBDA        29.1940    21.3440    67.7950 hc         1 CZ3       0.062950
    120 HBDB        29.0300    20.7020    69.4290 hc         1 CZ3       0.062950
    121 HCJ         28.5510    19.0860    67.2790 h1         1 CZ3       0.084700
    122 HBH         26.6820    19.1940    69.7090 h1         1 CZ3       0.095200
    123 HBHA        26.5610    17.9530    68.4630 h1         1 CZ3       0.095200
    124 HAW         28.6940    13.8090    69.2610 ha         1 CZ3       0.130000
    125 HAS         30.1750    11.8230    69.4500 ha         1 CZ3       0.117000
    126 HAP         32.1730    11.6040    67.9750 ha         1 CZ3       0.115000
    127 HAT         32.6850    13.3810    66.3040 ha         1 CZ3       0.117000
    128 HAX         31.2060    15.3740    66.1060 ha         1 CZ3       0.130000
@<TRIPOS>BOND
     1     1     2 ar  
     2     1     6 ar  
     3     1    69 1   
     4     2     3 ar  
     5     2    70 1   
     6     3     4 ar  
     7     3    71 1   
     8     4     5 ar  
     9     4    72 1   
    10     5     6 ar  
    11     5    73 1   
    12     6     7 1   
    13     7     8 1   
    14     8     9 2   
    15     8    12 1   
    16     9    10 1   
    17    10    11 2   
    18    11    12 1   
    19    12    13 1   
    20    13    14 1   
    21    13    74 1   
    22    13    75 1   
    23    14    15 1   
    24    14    18 1   
    25    14    76 1   
    26    15    16 1   
    27    15    77 1   
    28    15    78 1   
    29    16    17 1   
    30    16    79 1   
    31    16    80 1   
    32    17    18 1   
    33    17    81 1   
    34    17    82 1   
    35    18    19 1   
    36    19    20 2   
    37    19    21 1   
    38    21    22 1   
    39    21    29 1   
    40    21    83 1   
    41    22    23 1   
    42    22    84 1   
    43    23    24 2   
    44    23    25 1   
    45    25    26 1   
    46    25    27 1   
    47    25    85 1   
    48    26    86 1   
    49    26    87 1   
    50    26    88 1   
    51    27    28 1   
    52    27    89 1   
    53    28    90 1   
    54    28    91 1   
    55    28    92 1   
    56    29    30 1   
    57    29    31 1   
    58    29    93 1   
    59    30    94 1   
    60    30    95 1   
    61    30    96 1   
    62    31    32 1   
    63    32    33 1   
    64    32    97 1   
    65    32    98 1   
    66    33    34 3   
    67    34    35 1   
    68    35    36 3   
    69    36    37 1   
    70    37    38 1   
    71    37    99 1   
    72    37   100 1   
    73    38    39 1   
    74    39    40 1   
    75    39    41 1   
    76    39   101 1   
    77    40   102 1   
    78    40   103 1   
    79    40   104 1   
    80    41    42 1   
    81    41    49 1   
    82    41   105 1   
    83    42    43 1   
    84    42   106 1   
    85    43    44 2   
    86    43    45 1   
    87    45    46 1   
    88    45    47 1   
    89    45   107 1   
    90    46   108 1   
    91    46   109 1   
    92    46   110 1   
    93    47    48 1   
    94    47   111 1   
    95    48   112 1   
    96    48   113 1   
    97    48   114 1   
    98    49    50 2   
    99    49    51 1   
   100    51    52 1   
   101    51    55 1   
   102    52    53 1   
   103    52   115 1   
   104    52   116 1   
   105    53    54 1   
   106    53   117 1   
   107    53   118 1   
   108    54    55 1   
   109    54   119 1   
   110    54   120 1   
   111    55    56 1   
   112    55   121 1   
   113    56    57 1   
   114    56   122 1   
   115    56   123 1   
   116    57    58 1   
   117    57    61 1   
   118    58    59 2   
   119    59    60 1   
   120    60    61 2   
   121    61    62 1   
   122    62    63 1   
   123    63    64 ar  
   124    63    68 ar  
   125    64    65 ar  
   126    64   124 1   
   127    65    66 ar  
   128    65   125 1   
   129    66    67 ar  
   130    66   126 1   
   131    67    68 ar  
   132    67   127 1   
   133    68   128 1   
@<TRIPOS>SUBSTRUCTURE
     1 CZ3         1 TEMP              0 ****  ****    0 ROOT
