@<TRIPOS>MOLECULE
CZ3
  128   133     1     0     0
SMALL
abcg2


@<TRIPOS>ATOM
      1 CAU         21.4430    15.7710    63.3240 ca         1 CZ3      -0.051500
      2 CAQ         20.2300    16.4180    63.1390 ca         1 CZ3      -0.124500
      3 CAO         20.1860    17.6480    62.4940 ca         1 CZ3      -0.081000
      4 CAR         21.3570    18.2380    62.0380 ca         1 CZ3      -0.124500
      5 CAV         22.5780    17.6080    62.2350 ca         1 CZ3      -0.051500
      6 CCA         22.6120    16.3780    62.8790 ca         1 CZ3      -0.138000
      7 SBU         24.1660    15.5360    63.0410 ss         1 CZ3      -0.079300
      8 CCC         24.4690    15.7470    64.7380 cc         1 CZ3       0.473800
      9 NBK         23.7530    16.3900    65.6270 nd         1 CZ3      -0.389500
     10 NBI         24.4200    16.2790    66.7770 nd         1 CZ3      -0.051500
     11 NBM         25.4860    15.6040    66.6300 nc         1 CZ3      -0.217800
     12 NCO         25.5440    15.2440    65.3510 na         1 CZ3      -0.052700
     13 CBG         26.6310    14.4440    64.8280 c3         1 CZ3       0.063600
     14 CCI         26.3390    12.9430    64.9140 c5         1 CZ3       0.091700
     15 CBC         26.0070    12.4760    66.3360 c5         1 CZ3      -0.092900
     16 CBA         26.6910    11.1230    66.4490 c5         1 CZ3      -0.096900
     17 CBE         27.9790    11.3380    65.6730 c5         1 CZ3       0.106000
     18 NCM         27.5450    12.1910    64.5670 n          1 CZ3      -0.405800
     19 CBY         27.9650    12.1200    63.2910 c          1 CZ3       0.609100
     20 OAI         27.3310    12.6100    62.3670 o          1 CZ3      -0.598600
     21 CCK         29.3450    11.4990    63.0410 c3         1 CZ3       0.042700
     22 NBO         29.2840    10.5050    62.0010 ns         1 CZ3      -0.508400
     23 C           28.3780     9.5150    62.0160 c          1 CZ3       0.586100
     24 O           27.5400     9.4210    62.9020 o          1 CZ3      -0.597600
     25 CA          28.4050     8.5340    60.8420 c3         1 CZ3       0.102500
     26 CB          29.7860     8.3120    60.2230 c3         1 CZ3      -0.108600
     27 N           27.3520     8.9260    59.9170 n7         1 CZ3      -0.843900
     28 CAA         27.5950    10.1260    59.1380 c3         1 CZ3       0.141100
     29 CCG         30.3480    12.6060    62.6510 c3         1 CZ3       0.174300
     30 CAE         30.0950    13.2700    61.3030 c3         1 CZ3      -0.128600
     31 OBS         30.3140    13.4940    63.7540 os         1 CZ3      -0.453000
     32 CAY         31.0840    14.6660    63.6480 c3         1 CZ3       0.256200
     33 CAM         30.2950    15.7590    63.0870 c1         1 CZ3      -0.135600
     34 CAK         29.5540    16.5860    62.6120 cg         1 CZ3      -0.026500
     35 CAL         28.6440    17.4690    62.1030 cg         1 CZ3      -0.026500
     36 CAN         27.7820    18.1880    61.6560 c1         1 CZ3      -0.135600
     37 CAZ         26.6490    18.9730    61.1760 c3         1 CZ3       0.256200
     38 OBT         25.7390    19.2410    62.2120 os         1 CZ3      -0.453000
     39 CCH         25.8460    20.4260    62.9810 c3         1 CZ3       0.174300
     40 CAF         27.2130    21.0900    62.9760 c3         1 CZ3      -0.128600
     41 CCL         25.3330    20.0460    64.3960 c3         1 CZ3       0.042700
     42 NBP         24.7340    21.1950    65.0260 ns         1 CZ3      -0.508400
     43 CBX         23.7680    21.1850    65.9730 c          1 CZ3       0.586100
     44 OAH         23.3570    22.2240    66.4650 o          1 CZ3      -0.597600
     45 CCF         23.1560    19.8380    66.3780 c3         1 CZ3       0.102500
     46 CAD         21.9220    19.6030    65.5110 c3         1 CZ3      -0.108600
     47 NBR         22.8080    19.7820    67.7770 n7         1 CZ3      -0.843900
     48 CAB         23.9530    19.7760    68.6640 c3         1 CZ3       0.141100
     49 CBZ         26.4130    19.2920    65.1910 c          1 CZ3       0.609100
     50 OAJ         26.5550    18.1010    64.9510 o          1 CZ3      -0.598600
     51 NCN         27.2020    19.9190    66.0910 n          1 CZ3      -0.405800
     52 CBF         27.2000    21.3260    66.5220 c5         1 CZ3       0.106000
     53 CBB         28.3820    21.4280    67.4830 c5         1 CZ3      -0.096900
     54 CBD         29.2980    20.2970    67.0440 c5         1 CZ3      -0.092900
     55 CCJ         28.3200    19.1860    66.6850 c5         1 CZ3       0.091700
     56 CBH         27.8110    18.3840    67.8910 c3         1 CZ3       0.063600
     57 NCP         28.8920    17.8110    68.6670 na         1 CZ3      -0.052700
     58 NBN         29.2980    18.3550    69.8070 nc         1 CZ3      -0.217800
     59 NBJ         30.2520    17.6320    70.2450 nd         1 CZ3      -0.051500
     60 NBL         30.5150    16.6250    69.4160 nd         1 CZ3      -0.389500
     61 CCD         29.6590    16.7410    68.4290 cc         1 CZ3       0.473800
     62 SBV         29.5140    15.7310    67.0220 ss         1 CZ3      -0.079300
     63 CCB         29.7210    14.1370    67.7840 ca         1 CZ3      -0.138000
     64 CAW         28.7400    13.6460    68.6380 ca         1 CZ3      -0.051500
     65 CAS         28.9010    12.3930    69.2080 ca         1 CZ3      -0.124500
     66 CAP         30.0220    11.6280    68.9090 ca         1 CZ3      -0.081000
     67 CAT         30.9870    12.1190    68.0410 ca         1 CZ3      -0.124500
     68 CAX         30.8440    13.3810    67.4780 ca         1 CZ3      -0.051500
     69 HAU         21.4800    14.8050    63.8100 ha         1 CZ3       0.130000
     70 HAQ         19.3180    15.9550    63.4920 ha         1 CZ3       0.117000
     71 HAO         19.2370    18.1450    62.3450 ha         1 CZ3       0.115000
     72 HAR         21.3250    19.1970    61.5380 ha         1 CZ3       0.117000
     73 HAV         23.4950    18.0740    61.9010 ha         1 CZ3       0.130000
     74 HBG         26.8180    14.7570    63.8010 h1         1 CZ3       0.095200
     75 HBGA        27.5160    14.6850    65.4140 h1         1 CZ3       0.095200
     76 HCI         25.5280    12.6890    64.2250 h1         1 CZ3       0.084700
     77 HBC         26.4370    13.1590    67.0710 hc         1 CZ3       0.062950
     78 HBCA        24.9330    12.4380    66.5100 hc         1 CZ3       0.062950
     79 HBA         26.8740    10.8250    67.4810 hc         1 CZ3       0.060700
     80 HBAA        26.0950    10.3420    65.9710 hc         1 CZ3       0.060700
     81 HBE         28.7310    11.8390    66.2870 h1         1 CZ3       0.052700
     82 HBEA        28.3970    10.4030    65.3120 h1         1 CZ3       0.052700
     83 HCK         29.7340    11.0440    63.9550 h1         1 CZ3       0.088700
     84 HNBO        30.0020    10.5050    61.2950 hn         1 CZ3       0.314000
     85 HA          28.0890     7.5810    61.2740 h1         1 CZ3       0.086200
     86 HB          30.1850     9.1900    59.7130 hc         1 CZ3       0.044533
     87 HBB         30.5100     8.0020    60.9770 hc         1 CZ3       0.044533
     88 HBD         29.7220     7.5160    59.4810 hc         1 CZ3       0.044533
     89 HN          27.1660     8.1500    59.2950 hn         1 CZ3       0.420000
     90 HAA         27.6410    11.0010    59.7860 h1         1 CZ3       0.033700
     91 HAAA        28.5090    10.1140    58.5320 h1         1 CZ3       0.033700
     92 HAAB        26.7570    10.2760    58.4580 h1         1 CZ3       0.033700
     93 HCG         31.3390    12.1280    62.6040 h1         1 CZ3       0.038700
     94 HAE         29.1730    13.8430    61.2830 hc         1 CZ3       0.052367
     95 HAEA        30.9210    13.9320    61.0430 hc         1 CZ3       0.052367
     96 HAEB        30.0460    12.5240    60.5100 hc         1 CZ3       0.052367
     97 HAY         31.4020    14.9420    64.6580 h1         1 CZ3       0.065700
     98 HAYA        32.0000    14.5180    63.0640 h1         1 CZ3       0.065700
     99 HAZ         26.9940    19.8690    60.6520 h1         1 CZ3       0.065700
    100 HAZA        26.1110    18.3790    60.4330 h1         1 CZ3       0.065700
    101 HCH         25.1220    21.1530    62.5890 h1         1 CZ3       0.038700
    102 HAF         27.1860    21.9860    63.5970 hc         1 CZ3       0.052367
    103 HAFA        28.0090    20.4460    63.3490 hc         1 CZ3       0.052367
    104 HAFB        27.4890    21.4330    61.9800 hc         1 CZ3       0.052367
    105 HCL         24.5540    19.3030    64.2210 h1         1 CZ3       0.088700
    106 HNBP        25.0650    22.1140    64.7650 hn         1 CZ3       0.314000
    107 HCF         23.8600    19.0240    66.1970 h1         1 CZ3       0.086200
    108 HAD         21.1640    20.3660    65.6990 hc         1 CZ3       0.044533
    109 HADA        22.1640    19.6250    64.4480 hc         1 CZ3       0.044533
    110 HADB        21.4940    18.6280    65.7370 hc         1 CZ3       0.044533
    111 HNBR        22.1990    20.5580    68.0050 hn         1 CZ3       0.420000
    112 HAB         24.5510    18.8810    68.4830 h1         1 CZ3       0.033700
    113 HABA        24.6220    20.6430    68.5670 h1         1 CZ3       0.033700
    114 HABB        23.6130    19.7390    69.6990 h1         1 CZ3       0.033700
    115 HBF         27.3470    21.9940    65.6730 h1         1 CZ3       0.052700
    116 HBFA        26.2700    21.6010    67.0120 h1         1 CZ3       0.052700
    117 HBBA        28.8560    22.4070    67.4300 hc         1 CZ3       0.060700
    118 HBBB        28.0540    21.2820    68.5140 hc         1 CZ3       0.060700
    119 HBDA        29.8480    20.5810    66.1440 hc         1 CZ3       0.062950
    120 HBDB        30.0340    20.0150    67.7950 hc         1 CZ3       0.062950
    121 HCJ         28.7480    18.5000    65.9510 h1         1 CZ3       0.084700
    122 HBH         27.2410    19.0140    68.5710 h1         1 CZ3       0.095200
    123 HBHA        27.1640    17.5720    67.5610 h1         1 CZ3       0.095200
    124 HAW         27.8600    14.2370    68.8570 ha         1 CZ3       0.130000
    125 HAS         28.1430    12.0100    69.8790 ha         1 CZ3       0.117000
    126 HAP         30.1400    10.6470    69.3510 ha         1 CZ3       0.115000
    127 HAT         31.8600    11.5250    67.8050 ha         1 CZ3       0.117000
    128 HAX         31.6060    13.7730    66.8180 ha         1 CZ3       0.130000
@<TRIPOS>BOND
     1     1     2 ar  
     2     1     6 ar  
     3     1    69 1   
     4     2     3 ar  
     5     2    70 1   
     6     3     4 ar  
     7     3    71 1   
     8     4     5 ar  
     9     4    72 1   
    10     5     6 ar  
    11     5    73 1   
    12     6     7 1   
    13     7     8 1   
    14     8     9 2   
    15     8    12 1   
    16     9    10 1   
    17    10    11 2   
    18    11    12 1   
    19    12    13 1   
    20    13    14 1   
    21    13    74 1   
    22    13    75 1   
    23    14    15 1   
    24    14    18 1   
    25    14    76 1   
    26    15    16 1   
    27    15    77 1   
    28    15    78 1   
    29    16    17 1   
    30    16    79 1   
    31    16    80 1   
    32    17    18 1   
    33    17    81 1   
    34    17    82 1   
    35    18    19 1   
    36    19    20 2   
    37    19    21 1   
    38    21    22 1   
    39    21    29 1   
    40    21    83 1   
    41    22    23 1   
    42    22    84 1   
    43    23    24 2   
    44    23    25 1   
    45    25    26 1   
    46    25    27 1   
    47    25    85 1   
    48    26    86 1   
    49    26    87 1   
    50    26    88 1   
    51    27    28 1   
    52    27    89 1   
    53    28    90 1   
    54    28    91 1   
    55    28    92 1   
    56    29    30 1   
    57    29    31 1   
    58    29    93 1   
    59    30    94 1   
    60    30    95 1   
    61    30    96 1   
    62    31    32 1   
    63    32    33 1   
    64    32    97 1   
    65    32    98 1   
    66    33    34 3   
    67    34    35 1   
    68    35    36 3   
    69    36    37 1   
    70    37    38 1   
    71    37    99 1   
    72    37   100 1   
    73    38    39 1   
    74    39    40 1   
    75    39    41 1   
    76    39   101 1   
    77    40   102 1   
    78    40   103 1   
    79    40   104 1   
    80    41    42 1   
    81    41    49 1   
    82    41   105 1   
    83    42    43 1   
    84    42   106 1   
    85    43    44 2   
    86    43    45 1   
    87    45    46 1   
    88    45    47 1   
    89    45   107 1   
    90    46   108 1   
    91    46   109 1   
    92    46   110 1   
    93    47    48 1   
    94    47   111 1   
    95    48   112 1   
    96    48   113 1   
    97    48   114 1   
    98    49    50 2   
    99    49    51 1   
   100    51    52 1   
   101    51    55 1   
   102    52    53 1   
   103    52   115 1   
   104    52   116 1   
   105    53    54 1   
   106    53   117 1   
   107    53   118 1   
   108    54    55 1   
   109    54   119 1   
   110    54   120 1   
   111    55    56 1   
   112    55   121 1   
   113    56    57 1   
   114    56   122 1   
   115    56   123 1   
   116    57    58 1   
   117    57    61 1   
   118    58    59 2   
   119    59    60 1   
   120    60    61 2   
   121    61    62 1   
   122    62    63 1   
   123    63    64 ar  
   124    63    68 ar  
   125    64    65 ar  
   126    64   124 1   
   127    65    66 ar  
   128    65   125 1   
   129    66    67 ar  
   130    66   126 1   
   131    67    68 ar  
   132    67   127 1   
   133    68   128 1   
@<TRIPOS>SUBSTRUCTURE
     1 CZ3         1 TEMP              0 ****  ****    0 ROOT
