@<TRIPOS>MOLECULE
CZ4
   77    80     1     0     0
SMALL
bcc


@<TRIPOS>ATOM
      1 C1           2.3460     0.7610    -0.0300 ca         1 CZ4       0.150600
      2 C2           2.9610     2.0050    -0.0210 ca         1 CZ4      -0.127000
      3 C3           4.3490     2.1470    -0.0880 ca         1 CZ4      -0.074300
      4 C4           5.1490     1.0090    -0.1680 ca         1 CZ4      -0.062300
      5 C5           4.5320    -0.2450    -0.1830 ca         1 CZ4      -0.184000
      6 C6           3.1600    -0.3870    -0.1180 ca         1 CZ4       0.094100
      7 C7           4.9310     3.5340    -0.0670 c3         1 CZ4      -0.043800
      8 C9           3.1780    -2.8120    -0.1020 c3         1 CZ4       0.163100
      9 C10          3.7020    -3.0940     1.2960 c3         1 CZ4      -0.109100
     10 C11          2.1780    -3.8590    -0.5490 c3         1 CZ4      -0.109100
     11 C13         -0.0840     1.3630     0.1380 ca         1 CZ4       0.955900
     12 C15         -1.0180     3.4080     0.2530 ca         1 CZ4       0.514200
     13 C16         -2.2720     2.8620     0.3290 ca         1 CZ4      -0.339200
     14 O38         -6.4440     0.9940     0.6850 o          1 CZ4      -0.592300
     15 O37         -7.5220    -1.2220     1.2050 o          1 CZ4      -0.592300
     16 C26         -7.2020    -0.5530    -1.3500 c3         1 CZ4      -0.143900
     17 C28         -8.6390    -0.0560    -1.4230 c3         1 CZ4      -0.079600
     18 C27         -6.2680     0.2110    -2.2730 c3         1 CZ4      -0.079600
     19 C24         -5.0460    -1.1550     0.3640 cc         1 CZ4       0.070200
     20 N23         -4.9470    -2.4740     0.3280 nd         1 CZ4      -0.434800
     21 N22         -3.6620    -2.7170     0.2920 na         1 CZ4       0.149400
     22 C36         -3.1790    -4.0780     0.1990 c3         1 CZ4       0.035600
     23 C21         -2.9040    -1.5980     0.2980 cd         1 CZ4      -0.164300
     24 C20         -3.7820    -0.5310     0.3440 cc         1 CZ4       0.075300
     25 C17         -2.3580     1.4510     0.3020 ca         1 CZ4       0.770200
     26 CL1         -3.6840     3.8470     0.4480 cl         1 CZ4      -0.074400
     27 N18         -1.2610     0.7290     0.2070 nb         1 CZ4      -0.860000
     28 N14          0.0900     2.6780     0.1580 nb         1 CZ4      -0.788000
     29 N12          0.9750     0.5240     0.0380 nu         1 CZ4      -0.721300
     30 O8           2.4900    -1.5600    -0.1540 os         1 CZ4      -0.358900
     31 C29          6.6550     1.0750    -0.2260 c6         1 CZ4      -0.014400
     32 C34          7.3100     0.4240     0.9980 c6         1 CZ4      -0.105900
     33 C33          8.8350     0.4890     0.8890 c6         1 CZ4       0.162800
     34 N32          9.3670    -0.0880    -0.3340 n3         1 CZ4      -0.714600
     35 C32          9.3040    -1.5350    -0.3530 c3         1 CZ4       0.155100
     36 C31          8.7540     0.5280    -1.4990 c6         1 CZ4       0.162800
     37 C30          7.2260     0.4620    -1.5090 c6         1 CZ4      -0.105900
     38 H1           2.3430     2.8880     0.0430 ha         1 CZ4       0.171000
     39 H2           5.1590    -1.1250    -0.2460 ha         1 CZ4       0.133000
     40 H3           5.6360     3.6710     0.7550 hc         1 CZ4       0.041700
     41 H4           5.4690     3.7670    -0.9880 hc         1 CZ4       0.041700
     42 H5           4.1480     4.2820     0.0490 hc         1 CZ4       0.041700
     43 H6           4.0090    -2.7950    -0.8160 h1         1 CZ4       0.044700
     44 H7           4.1970    -4.0650     1.3120 hc         1 CZ4       0.046700
     45 H8           4.4270    -2.3520     1.6320 hc         1 CZ4       0.046700
     46 H9           2.8830    -3.1220     2.0170 hc         1 CZ4       0.046700
     47 H10          1.3380    -3.9230     0.1450 hc         1 CZ4       0.046700
     48 H11          1.7900    -3.6400    -1.5440 hc         1 CZ4       0.046700
     49 H12          2.6590    -4.8360    -0.5850 hc         1 CZ4       0.046700
     50 H13         -0.8940     4.4860     0.2700 h4         1 CZ4       0.034100
     51 H14         -7.1630    -1.6240    -1.5660 h1         1 CZ4       0.099700
     52 H15         -8.7090     1.0030    -1.1750 hc         1 CZ4       0.053533
     53 H16         -8.9940    -0.1820    -2.4460 hc         1 CZ4       0.053533
     54 H17         -9.3050    -0.6180    -0.7710 hc         1 CZ4       0.053533
     55 H18         -6.3170     1.2830    -2.0870 hc         1 CZ4       0.053533
     56 H19         -5.2310    -0.1130    -2.1870 hc         1 CZ4       0.053533
     57 H20         -6.5760     0.0350    -3.3030 hc         1 CZ4       0.053533
     58 H21         -3.3720    -4.4780    -0.7940 h1         1 CZ4       0.064033
     59 H22         -2.1090    -4.0840     0.3850 h1         1 CZ4       0.064033
     60 H23         -3.6740    -4.6930     0.9440 h1         1 CZ4       0.064033
     61 H24         -1.8320    -1.6360     0.2780 h4         1 CZ4       0.204000
     62 H25         -4.3820     1.4070     0.4750 hn         1 CZ4       0.497800
     63 H26          0.7150    -0.4500     0.0390 hn         1 CZ4       0.466800
     64 H27          6.9580     2.1270    -0.2200 hc         1 CZ4       0.054700
     65 H28          6.9870     0.9310     1.9110 hc         1 CZ4       0.045200
     66 H29          6.9840    -0.6170     1.0940 hc         1 CZ4       0.045200
     67 H30          9.1450     1.5400     0.9350 h1         1 CZ4       0.050950
     68 H31          9.2970    -0.0100     1.7450 h1         1 CZ4       0.050950
     69 H33          8.2930    -1.9600    -0.3000 h1         1 CZ4       0.028033
     70 H34          9.7660    -1.9100    -1.2680 h1         1 CZ4       0.028033
     71 H35          9.8680    -1.9370     0.4900 h1         1 CZ4       0.028033
     72 H36          9.0620     1.5800    -1.5290 h1         1 CZ4       0.050950
     73 H37          9.1590     0.0600    -2.4000 h1         1 CZ4       0.050950
     74 H38          6.9020    -0.5780    -1.6140 hc         1 CZ4       0.045200
     75 H39          6.8410     0.9940    -2.3830 hc         1 CZ4       0.045200
     76 N19         -3.5560     0.8320     0.3680 nu         1 CZ4      -0.713300
     77 S25         -6.6390    -0.4250     0.3610 sy         1 CZ4       1.036900
@<TRIPOS>BOND
     1     1     2 ar  
     2     1     6 ar  
     3     1    29 1   
     4     2     3 ar  
     5     2    38 1   
     6     3     4 ar  
     7     3     7 1   
     8     4     5 ar  
     9     4    31 1   
    10     5     6 ar  
    11     5    39 1   
    12     6    30 1   
    13     7    40 1   
    14     7    41 1   
    15     7    42 1   
    16     8     9 1   
    17     8    10 1   
    18     8    30 1   
    19     8    43 1   
    20     9    44 1   
    21     9    45 1   
    22     9    46 1   
    23    10    47 1   
    24    10    48 1   
    25    10    49 1   
    26    11    27 ar  
    27    11    28 ar  
    28    11    29 1   
    29    12    13 ar  
    30    12    28 ar  
    31    12    50 1   
    32    13    25 ar  
    33    13    26 1   
    34    14    77 2   
    35    15    77 2   
    36    16    17 1   
    37    16    18 1   
    38    16    51 1   
    39    16    77 1   
    40    17    52 1   
    41    17    53 1   
    42    17    54 1   
    43    18    55 1   
    44    18    56 1   
    45    18    57 1   
    46    19    20 2   
    47    19    24 1   
    48    19    77 1   
    49    20    21 1   
    50    21    22 1   
    51    21    23 1   
    52    22    58 1   
    53    22    59 1   
    54    22    60 1   
    55    23    24 2   
    56    23    61 1   
    57    24    76 1   
    58    25    27 ar  
    59    25    76 1   
    60    29    63 1   
    61    31    32 1   
    62    31    37 1   
    63    31    64 1   
    64    32    33 1   
    65    32    65 1   
    66    32    66 1   
    67    33    34 1   
    68    33    67 1   
    69    33    68 1   
    70    34    35 1   
    71    34    36 1   
    72    35    69 1   
    73    35    70 1   
    74    35    71 1   
    75    36    37 1   
    76    36    72 1   
    77    36    73 1   
    78    37    74 1   
    79    37    75 1   
    80    62    76 1   
@<TRIPOS>SUBSTRUCTURE
     1 CZ4         1 TEMP              0 ****  ****    0 ROOT
