@<TRIPOS>MOLECULE
CZ4
   77    80     1     0     0
SMALL
No Charge or Current Charge


@<TRIPOS>ATOM
      1 C1           2.3620     0.7680     0.2310 ca         1 CZ4       0.289000
      2 C2           2.9860     2.0000     0.5020 ca         1 CZ4      -0.109000
      3 C3           4.3840     2.1530     0.4030 ca         1 CZ4      -0.074300
      4 C4           5.1860     1.0430     0.0280 ca         1 CZ4      -0.062300
      5 C5           4.5610    -0.1970    -0.2240 ca         1 CZ4      -0.166000
      6 C6           3.1630    -0.3480    -0.1120 ca         1 CZ4       0.094100
      7 C7           4.9840     3.5230     0.7130 c3         1 CZ4      -0.043800
      8 C9           3.2230    -2.8220    -0.4730 c3         1 CZ4       0.186300
      9 C10          3.7480    -3.2380     0.9200 c3         1 CZ4      -0.109100
     10 C11          2.2040    -3.8300    -1.0340 c3         1 CZ4      -0.109100
     11 C13         -0.1510     1.3920     0.3030 ca         1 CZ4       0.429900
     12 C15         -1.1420     3.4330     0.0030 ca         1 CZ4       0.185900
     13 C16         -2.4000     2.8420     0.2010 ca         1 CZ4      -0.117000
     14 O38         -6.3610     1.3310     0.0210 o          1 CZ4      -0.521500
     15 O37         -7.8820    -0.5470     0.8690 o          1 CZ4      -0.521500
     16 C26         -7.0420    -0.6480    -1.6500 c3         1 CZ4      -0.254700
     17 C28         -8.3270    -0.0060    -2.2330 c3         1 CZ4      -0.079600
     18 C27         -5.8130    -0.4090    -2.5690 c3         1 CZ4      -0.079600
     19 C24         -5.2750    -1.0590     0.5590 cc         1 CZ4       0.004900
     20 N23         -5.3370    -2.3710     0.7730 nd         1 CZ4      -0.434800
     21 N22         -4.0420    -2.6920     1.1400 na         1 CZ4       0.170800
     22 C36         -3.6780    -4.0740     1.4720 c3         1 CZ4       0.064900
     23 C21         -3.1970    -1.5840     1.1590 cd         1 CZ4      -0.197000
     24 C20         -3.9750    -0.5410     0.7730 cc         1 CZ4       0.279000
     25 C17         -2.4260     1.4580     0.4510 ca         1 CZ4       0.441900
     26 Cl1         -3.8720     3.8160     0.1280 cl         1 CZ4      -0.166000
     27 N18         -1.2990     0.7310     0.4940 nb         1 CZ4      -0.334000
     28 N14         -0.0100     2.7050     0.0500 nb         1 CZ4      -0.262000
     29 N12          0.9700     0.5830     0.3300 nu         1 CZ4      -0.914900
     30 O8           2.5290    -1.5650    -0.3460 os         1 CZ4      -0.382100
     31 C29          6.7250     1.1360    -0.1030 c6         1 CZ4      -0.014400
     32 C34          7.4520     0.2100     0.9110 c6         1 CZ4      -0.105900
     33 C33          8.9920     0.2890     0.7340 c6         1 CZ4       0.162800
     34 N32          9.4130    -0.0280    -0.6610 n3         1 CZ4      -0.714600
     35 C32          9.2960    -1.4650    -1.0090 c3         1 CZ4       0.155100
     36 C31          8.7570     0.8840    -1.6400 c6         1 CZ4       0.162800
     37 C30          7.2090     0.8260    -1.5470 c6         1 CZ4      -0.105900
     38 H1           2.3880     2.8490     0.8110 ha         1 CZ4       0.153000
     39 H2           5.1800    -1.0410    -0.5090 ha         1 CZ4       0.115000
     40 H3           5.6920     3.4650     1.5480 hc         1 CZ4       0.041700
     41 H4           5.5130     3.9280    -0.1580 hc         1 CZ4       0.041700
     42 H5           4.2160     4.2550     0.9920 hc         1 CZ4       0.041700
     43 H6           4.0550    -2.7490    -1.1860 h1         1 CZ4       0.044700
     44 H7           4.2210    -4.2260     0.8680 hc         1 CZ4       0.046700
     45 H8           4.4950    -2.5300     1.2940 hc         1 CZ4       0.046700
     46 H9           2.9270    -3.2890     1.6450 hc         1 CZ4       0.046700
     47 H10          1.3440    -3.9330    -0.3610 hc         1 CZ4       0.046700
     48 H11          1.8410    -3.5030    -2.0150 hc         1 CZ4       0.046700
     49 H12          2.6670    -4.8170    -1.1540 hc         1 CZ4       0.046700
     50 H13         -1.0370     4.4980    -0.1980 h4         1 CZ4       0.034100
     51 H14         -7.2050    -1.7300    -1.5720 h1         1 CZ4       0.099700
     52 H15         -8.2270     1.0850    -2.3000 hc         1 CZ4       0.053533
     53 H16         -8.5310    -0.3910    -3.2400 hc         1 CZ4       0.053533
     54 H17         -9.1990    -0.2320    -1.6070 hc         1 CZ4       0.053533
     55 H18         -5.5760     0.6600    -2.6420 hc         1 CZ4       0.053533
     56 H19         -4.9250    -0.9320    -2.1930 hc         1 CZ4       0.053533
     57 H20         -6.0110    -0.7810    -3.5810 hc         1 CZ4       0.053533
     58 H21         -3.9790    -4.7390     0.6540 h1         1 CZ4       0.064033
     59 H22         -2.5930    -4.1480     1.6180 h1         1 CZ4       0.064033
     60 H23         -4.1900    -4.3740     2.3940 h1         1 CZ4       0.064033
     61 H24         -2.1540    -1.6330     1.4380 h4         1 CZ4       0.186000
     62 H25         -4.4400     1.4070     0.4850 hn         1 CZ4       0.553000
     63 H26          0.7250    -0.4060     0.2890 hn         1 CZ4       0.522000
     64 H27          7.0600     2.1560     0.1190 hc         1 CZ4       0.054700
     65 H28          7.1880     0.5060     1.9350 hc         1 CZ4       0.045200
     66 H29          7.1200    -0.8300     0.7980 hc         1 CZ4       0.045200
     67 H30          9.3220     1.3040     0.9990 h1         1 CZ4       0.050950
     68 H31          9.4750    -0.3940     1.4480 h1         1 CZ4       0.050950
     69 H33          8.2520    -1.8040    -0.9910 h1         1 CZ4       0.028033
     70 H34          9.6960    -1.6510    -2.0150 h1         1 CZ4       0.028033
     71 H35          9.8660    -2.0810    -0.3010 h1         1 CZ4       0.028033
     72 H36          9.0800     1.9200    -1.4550 h1         1 CZ4       0.050950
     73 H37          9.0690     0.6380    -2.6660 h1         1 CZ4       0.050950
     74 H38          6.8560    -0.1600    -1.8750 hc         1 CZ4       0.045200
     75 H39          6.7750     1.5540    -2.2450 hc         1 CZ4       0.045200
     76 N19         -3.6330     0.7930     0.6410 nu         1 CZ4      -0.906900
     77 S25         -6.7340    -0.0920     0.0680 sy         1 CZ4       1.006100
@<TRIPOS>BOND
     1     1     2 ar  
     2     1     6 ar  
     3     1    29 1   
     4     2     3 ar  
     5     2    38 1   
     6     3     4 ar  
     7     3     7 1   
     8     4     5 ar  
     9     4    31 1   
    10     5     6 ar  
    11     5    39 1   
    12     6    30 1   
    13     7    40 1   
    14     7    41 1   
    15     7    42 1   
    16     8     9 1   
    17     8    10 1   
    18     8    30 1   
    19     8    43 1   
    20     9    44 1   
    21     9    45 1   
    22     9    46 1   
    23    10    47 1   
    24    10    48 1   
    25    10    49 1   
    26    11    27 ar  
    27    11    28 ar  
    28    11    29 1   
    29    12    13 ar  
    30    12    28 ar  
    31    12    50 1   
    32    13    25 ar  
    33    13    26 1   
    34    14    77 2   
    35    15    77 2   
    36    16    17 1   
    37    16    18 1   
    38    16    51 1   
    39    16    77 1   
    40    17    52 1   
    41    17    53 1   
    42    17    54 1   
    43    18    55 1   
    44    18    56 1   
    45    18    57 1   
    46    19    20 2   
    47    19    24 1   
    48    19    77 1   
    49    20    21 1   
    50    21    22 1   
    51    21    23 1   
    52    22    58 1   
    53    22    59 1   
    54    22    60 1   
    55    23    24 2   
    56    23    61 1   
    57    24    76 1   
    58    25    27 ar  
    59    25    76 1   
    60    29    63 1   
    61    31    32 1   
    62    31    37 1   
    63    31    64 1   
    64    32    33 1   
    65    32    65 1   
    66    32    66 1   
    67    33    34 1   
    68    33    67 1   
    69    33    68 1   
    70    34    35 1   
    71    34    36 1   
    72    35    69 1   
    73    35    70 1   
    74    35    71 1   
    75    36    37 1   
    76    36    72 1   
    77    36    73 1   
    78    37    74 1   
    79    37    75 1   
    80    62    76 1   
@<TRIPOS>SUBSTRUCTURE
     1 CZ4         1 TEMP              0 ****  ****    0 ROOT
