@<TRIPOS>MOLECULE
CZ5
   43    45     1     0     0
SMALL
abcg2


@<TRIPOS>ATOM
      1 CAF         -4.7560     0.9080    -0.8660 ca         1 CZ5      -0.100000
      2 CAA         -6.0520     1.3950    -0.8020 ca         1 CZ5      -0.137000
      3 CAB         -6.3990     2.2970     0.1890 ca         1 CZ5       0.302900
      4 NAC         -5.5280     2.7230     1.0980 nb         1 CZ5      -0.644000
      5 CAD         -4.2920     2.2650     1.0430 ca         1 CZ5       0.284900
      6 CAE         -3.8390     1.3540     0.0830 ca         1 CZ5      -0.067000
      7 NAH         -2.5030     0.9670     0.1620 ns         1 CZ5      -0.131000
      8 CAK         -1.8120     0.1440    -0.6640 c          1 CZ5       0.653700
      9 OAL         -2.2750    -0.4090    -1.6410 o          1 CZ5      -0.564100
     10 CAM         -0.3620     0.0290    -0.3200 ca         1 CZ5      -0.251600
     11 CAN          0.4550     1.1450    -0.3830 ca         1 CZ5       0.413900
     12 NAO          1.7770     1.1240    -0.2890 nb         1 CZ5      -0.684000
     13 CAP          2.3650    -0.0460    -0.0970 ca         1 CZ5       0.541900
     14 NAX          3.7370    -0.1270    -0.0330 ns         1 CZ5      -0.344900
     15 CAY          4.6420     0.9000     0.2110 c          1 CZ5       0.662100
     16 OBA          4.3180     2.0200     0.5580 o          1 CZ5      -0.569100
     17 NAZ          5.9240     0.5030     0.0590 ns         1 CZ5      -0.524900
     18 CBB          7.0340     1.4190     0.2270 c3         1 CZ5       0.113000
     19 CBC          8.3360     0.6490     0.3540 c3         1 CZ5      -0.111100
     20 CAQ          1.6420    -1.2410     0.0310 ca         1 CZ5      -0.262000
     21 CAR          0.2710    -1.1980    -0.0940 ca         1 CZ5       0.140800
     22 NAS         -0.4790    -2.3680     0.0550 na         1 CZ5       0.207000
     23 NAT         -1.6800    -2.3170     0.6400 nc         1 CZ5      -0.507800
     24 CAU         -2.1060    -3.5580     0.6580 cd         1 CZ5       0.259900
     25 CAV         -1.1690    -4.4380     0.0760 cd         1 CZ5      -0.217000
     26 CAW         -0.1300    -3.6310    -0.2970 cc         1 CZ5      -0.150000
     27 H1          -4.4810     0.2050    -1.6350 ha         1 CZ5       0.152000
     28 H2          -6.7900     1.0680    -1.5220 ha         1 CZ5       0.124000
     29 H3          -7.4070     2.6890     0.2540 h4         1 CZ5       0.021100
     30 H4          -3.6010     2.6360     1.7960 h4         1 CZ5       0.014100
     31 H5          -1.9980     1.3200     0.9620 hn         1 CZ5       0.160000
     32 H6           0.0130     2.1210    -0.5580 h4         1 CZ5       0.034100
     33 H7           4.1120    -1.0620    -0.0790 hn         1 CZ5       0.151000
     34 H8           6.1170    -0.3610    -0.4220 hn         1 CZ5       0.306500
     35 H9           7.0940     2.1170    -0.6140 h1         1 CZ5       0.054700
     36 H10          6.8680     2.0160     1.1240 h1         1 CZ5       0.054700
     37 H11          8.3230    -0.0080     1.2240 hc         1 CZ5       0.043367
     38 H12          8.5280     0.0410    -0.5320 hc         1 CZ5       0.043367
     39 H13          9.1690     1.3410     0.4640 hc         1 CZ5       0.043367
     40 H14          2.1520    -2.1660     0.2620 ha         1 CZ5       0.132000
     41 H15         -3.0660    -3.7970     1.0910 h4         1 CZ5       0.044100
     42 H16         -1.2500    -5.5030    -0.0560 ha         1 CZ5       0.150000
     43 H17          0.7990    -3.8510    -0.7960 h4         1 CZ5       0.157000
@<TRIPOS>BOND
     1     1     2 ar  
     2     1     6 ar  
     3     1    27 1   
     4     2     3 ar  
     5     2    28 1   
     6     3     4 ar  
     7     3    29 1   
     8     4     5 ar  
     9     5     6 ar  
    10     5    30 1   
    11     6     7 1   
    12     7     8 1   
    13     7    31 1   
    14     8     9 2   
    15     8    10 1   
    16    10    11 ar  
    17    10    21 ar  
    18    11    12 ar  
    19    11    32 1   
    20    12    13 ar  
    21    13    14 1   
    22    13    20 ar  
    23    14    15 1   
    24    14    33 1   
    25    15    16 2   
    26    15    17 1   
    27    17    18 1   
    28    17    34 1   
    29    18    19 1   
    30    18    35 1   
    31    18    36 1   
    32    19    37 1   
    33    19    38 1   
    34    19    39 1   
    35    20    21 ar  
    36    20    40 1   
    37    21    22 1   
    38    22    23 1   
    39    22    26 1   
    40    23    24 2   
    41    24    25 1   
    42    24    41 1   
    43    25    26 2   
    44    25    42 1   
    45    26    43 1   
@<TRIPOS>SUBSTRUCTURE
     1 CZ5         1 TEMP              0 ****  ****    0 ROOT
