@<TRIPOS>MOLECULE
CZ5
   43    45     1     0     0
SMALL
No Charge or Current Charge


@<TRIPOS>ATOM
      1 CAF         -4.9660     0.8180    -0.4260 ca         1 CZ5      -0.100000
      2 CAA         -6.2440     1.4050    -0.4000 ca         1 CZ5      -0.137000
      3 CAB         -6.3770     2.7540    -0.0330 ca         1 CZ5       0.302900
      4 NAC         -5.3200     3.5290     0.3030 nb         1 CZ5      -0.644000
      5 CAD         -4.0910     2.9630     0.2770 ca         1 CZ5       0.284900
      6 CAE         -3.8530     1.6170    -0.0810 ca         1 CZ5      -0.067000
      7 NAH         -2.5070     1.1430    -0.0650 ns         1 CZ5      -0.131000
      8 CAK         -1.9380    -0.0730    -0.4350 c          1 CZ5       0.653700
      9 OAL         -2.5890    -0.9920    -0.9150 o          1 CZ5      -0.564100
     10 CAM         -0.4410    -0.1620    -0.2800 ca         1 CZ5      -0.251600
     11 CAN          0.3310     1.0100    -0.3600 ca         1 CZ5       0.413900
     12 NAO          1.6760     1.0270    -0.2680 nb         1 CZ5      -0.684000
     13 CAP          2.3060    -0.1410    -0.0690 ca         1 CZ5       0.541900
     14 NAX          3.7030    -0.0900    -0.0420 ns         1 CZ5      -0.344900
     15 CAY          4.5420     0.8770     0.4470 c          1 CZ5       0.662100
     16 OBA          4.1880     1.8940     1.0240 o          1 CZ5      -0.569100
     17 NAZ          5.8620     0.5670     0.2370 ns         1 CZ5      -0.524900
     18 CBB          6.9810     1.4070     0.6620 c3         1 CZ5       0.113000
     19 CBC          8.3310     0.7870     0.2700 c3         1 CZ5      -0.111100
     20 CAQ          1.6390    -1.3640    -0.0040 ca         1 CZ5      -0.262000
     21 CAR          0.2380    -1.3920    -0.0950 ca         1 CZ5       0.140800
     22 NAS         -0.4220    -2.6180     0.0450 na         1 CZ5       0.207000
     23 NAT         -1.0820    -2.9180     1.2170 nc         1 CZ5      -0.507800
     24 CAU         -1.4670    -4.1600     0.9830 cd         1 CZ5       0.259900
     25 CAV         -1.0360    -4.6400    -0.2780 cd         1 CZ5      -0.217000
     26 CAW         -0.3350    -3.6380    -0.8900 cc         1 CZ5      -0.150000
     27 H1          -4.8710    -0.2280    -0.7040 ha         1 CZ5       0.152000
     28 H2          -7.1260     0.8250    -0.6580 ha         1 CZ5       0.124000
     29 H3          -7.3570     3.2290    -0.0050 h4         1 CZ5       0.021100
     30 H4          -3.2630     3.6140     0.5530 h4         1 CZ5       0.014100
     31 H5          -1.8460     1.8140     0.3040 hn         1 CZ5       0.160000
     32 H6          -0.1300     1.9820    -0.5310 h4         1 CZ5       0.034100
     33 H7           4.1540    -0.9040    -0.4340 hn         1 CZ5       0.151000
     34 H8           6.0610    -0.3000    -0.2470 hn         1 CZ5       0.306500
     35 H9           6.8820     2.3960     0.1940 h1         1 CZ5       0.054700
     36 H10          6.9380     1.5350     1.7520 h1         1 CZ5       0.054700
     37 H11          8.4570    -0.1960     0.7400 hc         1 CZ5       0.043367
     38 H12          8.4000     0.6650    -0.8180 hc         1 CZ5       0.043367
     39 H13          9.1540     1.4330     0.5970 hc         1 CZ5       0.043367
     40 H14          2.2030    -2.2810     0.1370 ha         1 CZ5       0.132000
     41 H15         -2.0390    -4.6890     1.7360 h4         1 CZ5       0.044100
     42 H16         -1.2230    -5.6310    -0.6780 ha         1 CZ5       0.150000
     43 H17          0.1780    -3.5580    -1.8410 h4         1 CZ5       0.157000
@<TRIPOS>BOND
     1     1     2 ar  
     2     1     6 ar  
     3     1    27 1   
     4     2     3 ar  
     5     2    28 1   
     6     3     4 ar  
     7     3    29 1   
     8     4     5 ar  
     9     5     6 ar  
    10     5    30 1   
    11     6     7 1   
    12     7     8 1   
    13     7    31 1   
    14     8     9 2   
    15     8    10 1   
    16    10    11 ar  
    17    10    21 ar  
    18    11    12 ar  
    19    11    32 1   
    20    12    13 ar  
    21    13    14 1   
    22    13    20 ar  
    23    14    15 1   
    24    14    33 1   
    25    15    16 2   
    26    15    17 1   
    27    17    18 1   
    28    17    34 1   
    29    18    19 1   
    30    18    35 1   
    31    18    36 1   
    32    19    37 1   
    33    19    38 1   
    34    19    39 1   
    35    20    21 ar  
    36    20    40 1   
    37    21    22 1   
    38    22    23 1   
    39    22    26 1   
    40    23    24 2   
    41    24    25 1   
    42    24    41 1   
    43    25    26 2   
    44    25    42 1   
    45    26    43 1   
@<TRIPOS>SUBSTRUCTURE
     1 CZ5         1 TEMP              0 ****  ****    0 ROOT
