@<TRIPOS>MOLECULE
CZA
   45    49     1     0     0
SMALL
abcg2


@<TRIPOS>ATOM
      1 O2          -1.7270    -6.9910     2.4030 o          1 CZA      -0.542100
      2 C6          -0.8610    -6.9240     1.5490 c          1 CZA       0.605300
      3 C3           0.0200    -7.9410     1.0280 ce         1 CZA      -0.473400
      4 C2           0.1470    -9.3260     1.4460 c          1 CZA       0.625300
      5 O1           0.9860   -10.0710     0.9590 o          1 CZA      -0.562100
      6 C1          -0.7950    -9.8210     2.5100 c3         1 CZA      -0.184100
      7 C5          -0.4740    -5.6300     0.8580 c5         1 CZA       0.082500
      8 C7          -1.5140    -4.8860     0.0270 c5         1 CZA       0.033500
      9 C15         -2.3860    -3.9410     0.7720 cc         1 CZA      -0.154400
     10 C16         -3.5680    -4.0520     1.4490 cd         1 CZA      -0.114100
     11 N2          -3.9570    -2.8080     1.8880 na         1 CZA      -0.222700
     12 C17         -3.0430    -1.8710     1.4960 ca         1 CZA      -0.040200
     13 C14         -2.0460    -2.5690     0.8020 ca         1 CZA      -0.108800
     14 C18         -2.9490    -0.4850     1.6440 ca         1 CZA      -0.119000
     15 C19         -1.8440     0.1280     1.0730 ca         1 CZA      -0.093000
     16 C20         -0.8450    -0.5840     0.3790 ca         1 CZA      -0.128000
     17 C13         -0.9330    -1.9560     0.2410 ca         1 CZA      -0.039300
     18 C12          0.0700    -2.8800    -0.3950 c6         1 CZA      -0.017100
     19 C8          -0.5890    -4.1470    -0.9790 c5         1 CZA      -0.060700
     20 C9           0.4220    -5.2520    -1.3930 c5         1 CZA       0.236200
     21 C10         -0.1950    -6.0850    -2.5230 c3         1 CZA      -0.107600
     22 C11          1.7840    -4.7250    -1.8300 c3         1 CZA      -0.107600
     23 N1           0.5250    -6.0270    -0.1260 nh         1 CZA      -0.699400
     24 C4           0.7700    -7.3350     0.0130 c2         1 CZA       0.436100
     25 O3           1.6250    -7.9680    -0.7480 oh         1 CZA      -0.469100
     26 HO3          2.1410    -7.3610    -1.2950 ho         1 CZA       0.482000
     27 H11         -1.8330    -9.7170     2.1910 hc         1 CZA       0.059367
     28 H12         -0.6900    -9.2370     3.4250 hc         1 CZA       0.059367
     29 H13         -0.5860   -10.8670     2.7250 hc         1 CZA       0.059367
     30 H5          -0.0240    -4.9670     1.6040 h1         1 CZA       0.106700
     31 H7          -2.1220    -5.6170    -0.5130 hc         1 CZA       0.065700
     32 H161        -4.1740    -4.9190     1.6560 h4         1 CZA       0.225000
     33 HN2         -4.8000    -2.6250     2.4070 hn         1 CZA       0.352000
     34 H18         -3.6980     0.0910     2.1690 ha         1 CZA       0.116000
     35 H19         -1.7430     1.2020     1.1640 ha         1 CZA       0.110000
     36 H20         -0.0050    -0.0420    -0.0410 ha         1 CZA       0.111000
     37 H121         0.6190    -2.3610    -1.1840 hc         1 CZA       0.053200
     38 H122         0.8150    -3.1480     0.3620 hc         1 CZA       0.053200
     39 H8          -1.1640    -3.8420    -1.8570 hc         1 CZA       0.072700
     40 H101        -1.1810    -6.4660    -2.2620 hc         1 CZA       0.049533
     41 H102        -0.3040    -5.4590    -3.4090 hc         1 CZA       0.049533
     42 H103         0.4180    -6.9360    -2.8170 hc         1 CZA       0.049533
     43 H111         1.6730    -4.0030    -2.6390 hc         1 CZA       0.049533
     44 H112         2.3230    -4.2490    -1.0140 hc         1 CZA       0.049533
     45 H113         2.4210    -5.5220    -2.2220 hc         1 CZA       0.049533
@<TRIPOS>BOND
     1     1     2 2   
     2     2     3 1   
     3     2     7 1   
     4     3     4 1   
     5     3    24 2   
     6     4     5 2   
     7     4     6 1   
     8     6    27 1   
     9     6    28 1   
    10     6    29 1   
    11     7     8 1   
    12     7    23 1   
    13     7    30 1   
    14     8     9 1   
    15     8    19 1   
    16     8    31 1   
    17     9    10 2   
    18     9    13 1   
    19    10    11 1   
    20    10    32 1   
    21    11    12 1   
    22    11    33 1   
    23    12    13 ar  
    24    12    14 ar  
    25    13    17 ar  
    26    14    15 ar  
    27    14    34 1   
    28    15    16 ar  
    29    15    35 1   
    30    16    17 ar  
    31    16    36 1   
    32    17    18 1   
    33    18    19 1   
    34    18    37 1   
    35    18    38 1   
    36    19    20 1   
    37    19    39 1   
    38    20    21 1   
    39    20    22 1   
    40    20    23 1   
    41    21    40 1   
    42    21    41 1   
    43    21    42 1   
    44    22    43 1   
    45    22    44 1   
    46    22    45 1   
    47    23    24 1   
    48    24    25 1   
    49    25    26 1   
@<TRIPOS>SUBSTRUCTURE
     1 CZA         1 TEMP              0 ****  ****    0 ROOT
