@<TRIPOS>MOLECULE
CZA
   45    49     1     0     0
SMALL
No Charge or Current Charge


@<TRIPOS>ATOM
      1 O2          -2.1070    -7.2480     2.0220 o          1 CZA      -0.542100
      2 C6          -1.1180    -6.9740     1.3550 c          1 CZA       0.605300
      3 C3          -0.1480    -7.9250     0.8030 ce         1 CZA      -0.473400
      4 C2          -0.0900    -9.3610     1.1370 c          1 CZA       0.625300
      5 O1           0.3630   -10.1810     0.3490 o          1 CZA      -0.562100
      6 C1          -0.4680    -9.7860     2.5550 c3         1 CZA      -0.184100
      7 C5          -0.5850    -5.5790     0.8980 c5         1 CZA       0.082500
      8 C7          -1.5940    -4.8790    -0.0540 c5         1 CZA       0.033500
      9 C15         -2.4310    -3.8510     0.6590 cc         1 CZA      -0.154400
     10 C16         -3.6720    -3.9880     1.2720 cd         1 CZA      -0.114100
     11 N2          -4.0590    -2.7190     1.7990 na         1 CZA      -0.222700
     12 C17         -3.0340    -1.8400     1.4730 ca         1 CZA      -0.040200
     13 C14         -2.0650    -2.5050     0.8020 ca         1 CZA      -0.108800
     14 C18         -2.9010    -0.4660     1.7220 ca         1 CZA      -0.119000
     15 C19         -1.7300     0.1800     1.2480 ca         1 CZA      -0.093000
     16 C20         -0.7330    -0.5470     0.5400 ca         1 CZA      -0.128000
     17 C13         -0.9100    -1.9280     0.3040 ca         1 CZA      -0.039300
     18 C12          0.0870    -2.8390    -0.4250 c6         1 CZA      -0.017100
     19 C8          -0.5860    -4.1470    -1.0240 c5         1 CZA      -0.060700
     20 C9           0.4040    -5.3260    -1.3710 c5         1 CZA       0.236200
     21 C10         -0.2120    -6.3250    -2.4030 c3         1 CZA      -0.107600
     22 C11          1.7510    -4.8320    -1.9650 c3         1 CZA      -0.107600
     23 N1           0.5810    -5.9140     0.0000 nh         1 CZA      -0.699400
     24 C4           0.7660    -7.2650     0.1080 c2         1 CZA       0.436100
     25 O3           1.8960    -7.7410    -0.3830 oh         1 CZA      -0.469100
     26 HO3          2.3910    -6.9340    -0.6160 ho         1 CZA       0.482000
     27 H11         -1.5590    -9.7700     2.6430 hc         1 CZA       0.059367
     28 H12         -0.1470    -9.0210     3.2700 hc         1 CZA       0.059367
     29 H13         -0.0850   -10.7810     2.8080 hc         1 CZA       0.059367
     30 H5          -0.2930    -4.9790     1.7700 h1         1 CZA       0.106700
     31 H7          -2.2330    -5.5930    -0.5850 hc         1 CZA       0.065700
     32 H161        -4.2970    -4.8720     1.3750 h4         1 CZA       0.225000
     33 HN2         -4.9140    -2.5000     2.3020 hn         1 CZA       0.352000
     34 H18         -3.6680     0.0860     2.2580 ha         1 CZA       0.116000
     35 H19         -1.5940     1.2440     1.4260 ha         1 CZA       0.110000
     36 H20          0.1610    -0.0410     0.1830 ha         1 CZA       0.111000
     37 H121         0.5840    -2.2770    -1.2270 hc         1 CZA       0.053200
     38 H122         0.8730    -3.1160     0.2900 hc         1 CZA       0.053200
     39 H8          -1.1120    -3.7980    -1.9200 hc         1 CZA       0.072700
     40 H101        -1.1020    -6.8360    -2.0230 hc         1 CZA       0.049533
     41 H102        -0.5020    -5.8030    -3.3230 hc         1 CZA       0.049533
     42 H103         0.5020    -7.1050    -2.6910 hc         1 CZA       0.049533
     43 H111         1.5810    -4.2060    -2.8490 hc         1 CZA       0.049533
     44 H112         2.3240    -4.2410    -1.2430 hc         1 CZA       0.049533
     45 H113         2.3900    -5.6660    -2.2770 hc         1 CZA       0.049533
@<TRIPOS>BOND
     1     1     2 2   
     2     2     3 1   
     3     2     7 1   
     4     3     4 1   
     5     3    24 2   
     6     4     5 2   
     7     4     6 1   
     8     6    27 1   
     9     6    28 1   
    10     6    29 1   
    11     7     8 1   
    12     7    23 1   
    13     7    30 1   
    14     8     9 1   
    15     8    19 1   
    16     8    31 1   
    17     9    10 2   
    18     9    13 1   
    19    10    11 1   
    20    10    32 1   
    21    11    12 1   
    22    11    33 1   
    23    12    13 ar  
    24    12    14 ar  
    25    13    17 ar  
    26    14    15 ar  
    27    14    34 1   
    28    15    16 ar  
    29    15    35 1   
    30    16    17 ar  
    31    16    36 1   
    32    17    18 1   
    33    18    19 1   
    34    18    37 1   
    35    18    38 1   
    36    19    20 1   
    37    19    39 1   
    38    20    21 1   
    39    20    22 1   
    40    20    23 1   
    41    21    40 1   
    42    21    41 1   
    43    21    42 1   
    44    22    43 1   
    45    22    44 1   
    46    22    45 1   
    47    23    24 1   
    48    24    25 1   
    49    25    26 1   
@<TRIPOS>SUBSTRUCTURE
     1 CZA         1 TEMP              0 ****  ****    0 ROOT
