@<TRIPOS>MOLECULE
CZB
   56    60     1     0     0
SMALL
abcg2


@<TRIPOS>ATOM
      1 O18         -1.1800     2.6020    -2.2280 o          1 CZB      -0.492000
      2 C3          -0.8930     1.7010    -1.4770 c          1 CZB       0.517000
      3 N4          -1.7460     0.9140    -0.7640 n          1 CZB      -0.266500
      4 C5          -3.1410     1.0010    -0.6640 c2         1 CZB      -0.155400
      5 C9          -0.9910    -0.0140    -0.0520 c2         1 CZB       0.468900
      6 C8          -1.7620    -1.0070     0.7580 c6         1 CZB       0.198200
      7 C26         -2.1080    -2.2640    -0.0720 c3         1 CZB      -0.054100
      8 C27         -0.9010    -3.0480    -0.4980 ca         1 CZB      -0.088300
      9 C28         -0.2290    -3.8580     0.4160 ca         1 CZB      -0.093500
     10 C29          0.9000    -4.5690     0.0380 ca         1 CZB      -0.104000
     11 C30          1.3750    -4.4810    -1.2660 ca         1 CZB      -0.102000
     12 C31          0.7110    -3.6790    -2.1840 ca         1 CZB      -0.104000
     13 C32         -0.4180    -2.9680    -1.7990 ca         1 CZB      -0.093500
     14 N7          -2.9420    -0.3320     1.2560 nu         1 CZB      -0.829200
     15 C6          -3.7270     0.3860     0.3790 ce         1 CZB       0.134800
     16 C19         -5.1750     0.4570     0.6180 ca         1 CZB      -0.099800
     17 C20         -5.8880     1.6250     0.3500 ca         1 CZB      -0.056000
     18 C21         -7.2560     1.6910     0.5440 ca         1 CZB      -0.175000
     19 C24         -5.8790    -0.6420     1.1130 ca         1 CZB      -0.056000
     20 C23         -7.2460    -0.5870     1.3190 ca         1 CZB      -0.175000
     21 C22         -7.9470     0.5830     1.0310 ca         1 CZB       0.151100
     22 O25         -9.2750     0.5900     1.2450 oh         1 CZB      -0.528100
     23 N1           0.2670     0.0700    -0.1950 n2         1 CZB      -0.590900
     24 C2           0.5060     1.2060    -1.0600 c5         1 CZB       0.248200
     25 O33          1.2990     0.8970    -2.1640 os         1 CZB      -0.188000
     26 O34          0.5930    -0.0120    -2.9770 oh         1 CZB      -0.438000
     27 C10          1.2430     2.3210    -0.3060 c3         1 CZB      -0.008100
     28 C11          2.6200     1.9110     0.1310 ca         1 CZB      -0.063300
     29 C12          3.7310     2.2150    -0.6490 ca         1 CZB      -0.085500
     30 C13          5.0090     1.8340    -0.2640 ca         1 CZB      -0.088000
     31 C14          5.1720     1.1340     0.9210 ca         1 CZB      -0.011900
     32 BR17         6.9050     0.6060     1.4590 br         1 CZB      -0.106100
     33 C15          4.0840     0.8210     1.7220 ca         1 CZB      -0.088000
     34 C16          2.8160     1.2130     1.3190 ca         1 CZB      -0.085500
     35 H5          -3.6640     1.5350    -1.4410 h4         1 CZB       0.229000
     36 H8          -1.1490    -1.3010     1.6110 h1         1 CZB       0.093700
     37 H261        -2.7530    -2.8820     0.5590 hc         1 CZB       0.055700
     38 H262        -2.7020    -1.9720    -0.9420 hc         1 CZB       0.055700
     39 H28         -0.5950    -3.9380     1.4330 ha         1 CZB       0.107500
     40 H29          1.4080    -5.1980     0.7580 ha         1 CZB       0.113000
     41 H30          2.2550    -5.0370    -1.5630 ha         1 CZB       0.112000
     42 H31          1.0720    -3.6050    -3.2020 ha         1 CZB       0.113000
     43 H32         -0.9270    -2.3400    -2.5190 ha         1 CZB       0.107500
     44 HN7         -3.3980    -0.7740     2.0370 hn         1 CZB       0.484000
     45 H20         -5.3670     2.5050    -0.0030 ha         1 CZB       0.116500
     46 H21         -7.7840     2.6130     0.3290 ha         1 CZB       0.125000
     47 H24         -5.3650    -1.5720     1.3250 ha         1 CZB       0.116500
     48 H23         -7.7740    -1.4540     1.6940 ha         1 CZB       0.125000
     49 H25         -9.6520     1.4420     0.9960 ho         1 CZB       0.469000
     50 H34          0.4020     0.5270    -3.7590 ho         1 CZB       0.449000
     51 H101         1.2930     3.1990    -0.9530 hc         1 CZB       0.070700
     52 H102         0.6360     2.5990     0.5590 hc         1 CZB       0.070700
     53 H12          3.6080     2.7690    -1.5710 ha         1 CZB       0.118500
     54 H13          5.8560     2.0850    -0.8880 ha         1 CZB       0.128000
     55 H15          4.2110     0.2810     2.6510 ha         1 CZB       0.128000
     56 H16          1.9690     0.9700     1.9480 ha         1 CZB       0.118500
@<TRIPOS>BOND
     1     1     2 2   
     2     2     3 1   
     3     2    24 1   
     4     3     4 1   
     5     3     5 1   
     6     4    15 2   
     7     4    35 1   
     8     5     6 1   
     9     5    23 2   
    10     6     7 1   
    11     6    14 1   
    12     6    36 1   
    13     7     8 1   
    14     7    37 1   
    15     7    38 1   
    16     8     9 ar  
    17     8    13 ar  
    18     9    10 ar  
    19     9    39 1   
    20    10    11 ar  
    21    10    40 1   
    22    11    12 ar  
    23    11    41 1   
    24    12    13 ar  
    25    12    42 1   
    26    13    43 1   
    27    14    15 1   
    28    14    44 1   
    29    15    16 1   
    30    16    17 ar  
    31    16    19 ar  
    32    17    18 ar  
    33    17    45 1   
    34    18    21 ar  
    35    18    46 1   
    36    19    20 ar  
    37    19    47 1   
    38    20    21 ar  
    39    20    48 1   
    40    21    22 1   
    41    22    49 1   
    42    23    24 1   
    43    24    25 1   
    44    24    27 1   
    45    25    26 1   
    46    26    50 1   
    47    27    28 1   
    48    27    51 1   
    49    27    52 1   
    50    28    29 ar  
    51    28    34 ar  
    52    29    30 ar  
    53    29    53 1   
    54    30    31 ar  
    55    30    54 1   
    56    31    32 1   
    57    31    33 ar  
    58    33    34 ar  
    59    33    55 1   
    60    34    56 1   
@<TRIPOS>SUBSTRUCTURE
     1 CZB         1 TEMP              0 ****  ****    0 ROOT
