@<TRIPOS>MOLECULE
CZB
   56    60     1     0     0
SMALL
No Charge or Current Charge


@<TRIPOS>ATOM
      1 O18         -1.4170     2.9600    -1.8730 o          1 CZB      -0.492000
      2 C3          -1.0650     1.9470    -1.2770 c          1 CZB       0.517000
      3 N4          -1.8840     1.0410    -0.6320 n          1 CZB      -0.266500
      4 C5          -3.2730     1.2010    -0.4350 c2         1 CZB      -0.155400
      5 C9          -1.1540    -0.0290    -0.1160 c2         1 CZB       0.468900
      6 C8          -1.9350    -1.1470     0.6350 c6         1 CZB       0.198200
      7 C26         -1.9260    -2.4720    -0.1830 c3         1 CZB      -0.054100
      8 C27         -0.5440    -3.0960    -0.3500 ca         1 CZB      -0.088300
      9 C28          0.1220    -3.6490     0.7620 ca         1 CZB      -0.093500
     10 C29          1.4000    -4.2170     0.6140 ca         1 CZB      -0.104000
     11 C30          2.0200    -4.2360    -0.6460 ca         1 CZB      -0.102000
     12 C31          1.3600    -3.6890    -1.7590 ca         1 CZB      -0.104000
     13 C32          0.0820    -3.1220    -1.6120 ca         1 CZB      -0.093500
     14 N7          -3.3610    -0.7690     0.9170 nu         1 CZB      -0.829200
     15 C6          -3.9870     0.3410     0.3200 ce         1 CZB       0.134800
     16 C19         -5.4540     0.4870     0.5440 ca         1 CZB      -0.099800
     17 C20         -6.0170     1.7640     0.7510 ca         1 CZB      -0.056000
     18 C21         -7.4010     1.9090     0.9600 ca         1 CZB      -0.175000
     19 C24         -6.3010    -0.6420     0.5440 ca         1 CZB      -0.056000
     20 C23         -7.6840    -0.4940     0.7510 ca         1 CZB      -0.175000
     21 C22         -8.2320     0.7790     0.9600 ca         1 CZB       0.151100
     22 O25         -9.5740     0.9100     1.1600 oh         1 CZB      -0.528100
     23 N1           0.1270     0.0370    -0.2800 n2         1 CZB      -0.590900
     24 C2           0.3430     1.3070    -1.0620 c5         1 CZB       0.248200
     25 O33          0.9790     1.0200    -2.3450 os         1 CZB      -0.188000
     26 O34          0.1110     0.1660    -3.1950 oh         1 CZB      -0.438000
     27 C10          1.2570     2.2750    -0.2620 c3         1 CZB      -0.008100
     28 C11          2.6680     1.7490     0.0040 ca         1 CZB      -0.063300
     29 C12          3.7120     2.0210    -0.9030 ca         1 CZB      -0.085500
     30 C13          5.0090     1.5350    -0.6600 ca         1 CZB      -0.088000
     31 C14          5.2680     0.7760     0.4920 ca         1 CZB      -0.011900
     32 Br17         7.0310     0.1120     0.8210 br         1 CZB      -0.106100
     33 C15          4.2350     0.5020     1.4030 ca         1 CZB      -0.088000
     34 C16          2.9380     0.9880     1.1600 ca         1 CZB      -0.085500
     35 H5          -3.7180     2.0650    -0.9300 h4         1 CZB       0.229000
     36 H8          -1.4120    -1.3330     1.5850 h1         1 CZB       0.093700
     37 H261        -2.5760    -3.2060     0.3110 hc         1 CZB       0.055700
     38 H262        -2.3820    -2.2940    -1.1650 hc         1 CZB       0.055700
     39 H28         -0.3500    -3.6400     1.7420 ha         1 CZB       0.107500
     40 H29          1.9090    -4.6410     1.4770 ha         1 CZB       0.113000
     41 H30          3.0090    -4.6740    -0.7600 ha         1 CZB       0.112000
     42 H31          1.8390    -3.7020    -2.7360 ha         1 CZB       0.113000
     43 H32         -0.4170    -2.6960    -2.4800 ha         1 CZB       0.107500
     44 HN7         -3.9220    -1.3550     1.5400 hn         1 CZB       0.484000
     45 H20         -5.3810     2.6470     0.7630 ha         1 CZB       0.116500
     46 H21         -7.8160     2.9010     1.1220 ha         1 CZB       0.125000
     47 H24         -5.8930    -1.6350     0.3690 ha         1 CZB       0.116500
     48 H23         -8.3290    -1.3690     0.7470 ha         1 CZB       0.125000
     49 H25         -9.7770     1.8610     1.2870 ho         1 CZB       0.469000
     50 H34         -0.1290     0.7960    -3.9120 ho         1 CZB       0.449000
     51 H101         1.3210     3.2290    -0.7990 hc         1 CZB       0.070700
     52 H102         0.7750     2.5190     0.6930 hc         1 CZB       0.070700
     53 H12          3.5180     2.6050    -1.8000 ha         1 CZB       0.118500
     54 H13          5.8090     1.7460    -1.3660 ha         1 CZB       0.128000
     55 H15          4.4350    -0.0870     2.2950 ha         1 CZB       0.128000
     56 H16          2.1420     0.7680     1.8670 ha         1 CZB       0.118500
@<TRIPOS>BOND
     1     1     2 2   
     2     2     3 1   
     3     2    24 1   
     4     3     4 1   
     5     3     5 1   
     6     4    15 2   
     7     4    35 1   
     8     5     6 1   
     9     5    23 2   
    10     6     7 1   
    11     6    14 1   
    12     6    36 1   
    13     7     8 1   
    14     7    37 1   
    15     7    38 1   
    16     8     9 ar  
    17     8    13 ar  
    18     9    10 ar  
    19     9    39 1   
    20    10    11 ar  
    21    10    40 1   
    22    11    12 ar  
    23    11    41 1   
    24    12    13 ar  
    25    12    42 1   
    26    13    43 1   
    27    14    15 1   
    28    14    44 1   
    29    15    16 1   
    30    16    17 ar  
    31    16    19 ar  
    32    17    18 ar  
    33    17    45 1   
    34    18    21 ar  
    35    18    46 1   
    36    19    20 ar  
    37    19    47 1   
    38    20    21 ar  
    39    20    48 1   
    40    21    22 1   
    41    22    49 1   
    42    23    24 1   
    43    24    25 1   
    44    24    27 1   
    45    25    26 1   
    46    26    50 1   
    47    27    28 1   
    48    27    51 1   
    49    27    52 1   
    50    28    29 ar  
    51    28    34 ar  
    52    29    30 ar  
    53    29    53 1   
    54    30    31 ar  
    55    30    54 1   
    56    31    32 1   
    57    31    33 ar  
    58    33    34 ar  
    59    33    55 1   
    60    34    56 1   
@<TRIPOS>SUBSTRUCTURE
     1 CZB         1 TEMP              0 ****  ****    0 ROOT
