@<TRIPOS>MOLECULE
CZD
  126   130     1     0     0
SMALL
No Charge or Current Charge


@<TRIPOS>ATOM
      1 C4          60.0750     0.8310    11.3820 cp         1 CZD       0.221500
      2 C14         57.8320     2.2810     5.3430 c3         1 CZD      -0.082767
      3 C5          59.2820     1.2750    10.1760 cp         1 CZD      -0.165500
      4 C6          58.9420     0.3710     9.1360 ca         1 CZD      -0.060500
      5 C7          58.2080     0.7870     8.0120 ca         1 CZD      -0.128000
      6 C8          57.7760     2.1240     7.8690 ca         1 CZD      -0.040300
      7 C9          58.1080     3.0320     8.9020 ca         1 CZD      -0.128000
      8 C10         58.8430     2.6170    10.0260 ca         1 CZD      -0.060500
      9 C12         55.6700     1.6920     6.5270 c3         1 CZD      -0.082767
     10 C13         56.5620     4.0390     6.6110 c3         1 CZD      -0.082767
     11 N1          60.3900     1.7590    12.3080 nb         1 CZD      -0.201000
     12 N2          62.5160    -1.8040    14.8230 ns         1 CZD      -0.479900
     13 C3          61.1550    -0.8570    12.5250 ca         1 CZD       0.135900
     14 N           60.4340    -0.4640    11.4600 nb         1 CZD      -0.190000
     15 O           62.8980     0.3120    15.5170 o          1 CZD      -0.597100
     16 C1          61.1150     1.3850    13.3820 ca         1 CZD       0.192300
     17 C16         63.3150    -2.5080    15.8550 c3         1 CZD       0.042700
     18 C17         62.4380    -2.8960    17.0790 c3         1 CZD      -0.091400
     19 C18         61.9340    -1.6930    17.9010 c3         1 CZD       0.151800
     20 C19         64.0010    -3.7640    15.2240 c          1 CZD       0.586100
     21 C2          61.5410     0.0400    13.5460 ca         1 CZD      -0.266600
     22 C21         65.6480    -5.6810    15.4220 c3         1 CZD       0.085000
     23 C22         67.0360    -5.4470    14.7900 ca         1 CZD      -0.150300
     24 C23         67.1450    -4.7830    13.5520 ca         1 CZD      -0.043000
     25 C24         68.4040    -4.5950    12.9490 ca         1 CZD      -0.206000
     26 C25         69.5710    -5.0960    13.5670 ca         1 CZD       0.185100
     27 C26         69.4830    -5.7640    14.8130 cp         1 CZD      -0.058000
     28 C27         68.2160    -5.8970    15.4170 ca         1 CZD      -0.058000
     29 C28         70.6370    -6.4240    15.4900 cp         1 CZD      -0.055000
     30 C29         70.5680    -7.8210    15.6850 ca         1 CZD      -0.068000
     31 C30         71.5180    -8.5150    16.4600 ca         1 CZD      -0.118300
     32 C31         72.6030    -7.7910    16.9910 ca         1 CZD      -0.068000
     33 C32         72.7230    -6.4050    16.7720 ca         1 CZD      -0.196000
     34 C33         71.7340    -5.7160    16.0370 ca         1 CZD       0.167100
     35 C34         72.8800    -3.5410    16.2640 c3         1 CZD       0.162600
     36 C35         72.5970    -2.0800    15.8270 c3         1 CZD       0.146800
     37 C36         71.4130   -10.0220    16.7590 c3         1 CZD      -0.031100
     38 C37         70.1410   -10.7850    16.2680 c3         1 CZD       0.032700
     39 C38         67.7740    -9.8790    16.0890 c          1 CZD       0.576100
     40 C39         66.6300    -9.1510    16.8500 c3         1 CZD       0.038700
     41 C40         65.6580    -6.8390    16.4760 c          1 CZD       0.589100
     42 C41         65.4910   -10.1150    17.2440 c3         1 CZD      -0.096100
     43 C42         70.2430   -12.3050    16.5870 c          1 CZD       0.589100
     44 C45         71.0570    -4.2080    11.8040 c3         1 CZD       0.161600
     45 C46         72.5780    -4.2340    11.4920 c3         1 CZD       0.151800
     46 N10         73.1000    -5.5930    11.1900 n8         1 CZD      -1.000200
     47 N4          65.0590    -4.3980    15.9260 n          1 CZD      -0.380800
     48 N5          73.6810    -1.1330    16.2000 n8         1 CZD      -1.007200
     49 N6          68.8840   -10.2220    16.8380 ns         1 CZD      -0.480900
     50 N7          66.1240    -8.0500    16.0000 ns         1 CZD      -0.492900
     51 O1          63.5900    -4.2270    14.1640 o          1 CZD      -0.616100
     52 O2          71.7630    -4.3470    15.8500 os         1 CZD      -0.347100
     53 O4          65.3520    -6.6930    17.6530 o          1 CZD      -0.605100
     54 O5          69.5670   -12.8630    17.4440 o          1 CZD      -0.602100
     55 O6          70.8220    -4.9920    12.9900 os         1 CZD      -0.345100
     56 C43         71.4320   -14.4490    15.9740 c3         1 CZD       0.047700
     57 C44         72.2010   -14.7780    17.2450 c2         1 CZD       0.395200
     58 N8          71.1580   -13.0050    15.8270 ns         1 CZD      -0.484900
     59 N9          73.4530   -14.5170    17.3990 n2         1 CZD      -0.744100
     60 H1          58.0780     1.2190     5.2300 hc         1 CZD       0.036478
     61 H2          57.3020     2.5950     4.4350 hc         1 CZD       0.036478
     62 H3          58.7730     2.8410     5.3960 hc         1 CZD       0.036478
     63 H4          59.2480    -0.6720     9.1880 ha         1 CZD       0.133000
     64 H5          57.9790     0.0510     7.2460 ha         1 CZD       0.114500
     65 H6          57.8080     4.0740     8.8580 ha         1 CZD       0.114500
     66 H7          59.0700     3.3590    10.7890 ha         1 CZD       0.133000
     67 H8          55.8890     0.6230     6.4220 hc         1 CZD       0.036478
     68 H9          55.0650     1.8260     7.4310 hc         1 CZD       0.036478
     69 H10         55.0610     1.9890     5.6640 hc         1 CZD       0.036478
     70 H11         57.4450     4.6890     6.6370 hc         1 CZD       0.036478
     71 H12         55.9950     4.2920     5.7070 hc         1 CZD       0.036478
     72 H13         55.9290     4.2750     7.4750 hc         1 CZD       0.036478
     73 H14         62.0810    -2.3690    14.1040 hn         1 CZD       0.322500
     74 H15         61.4300    -1.9090    12.5370 h4         1 CZD       0.024100
     75 H16         60.8300    -1.3090    19.5890 hn         1 CZD       0.395000
     76 H17         60.3330    -2.6200    18.7930 hn         1 CZD       0.395000
     77 H19         60.8940     3.4390    14.0910 hc         1 CZD       0.067367
     78 H20         61.0480     2.2430    15.3780 hc         1 CZD       0.067367
     79 H21         62.4710     2.7210    14.4270 hc         1 CZD       0.067367
     80 H22         64.1160    -1.8360    16.1890 h1         1 CZD       0.088700
     81 H23         61.5800    -3.4840    16.7300 hc         1 CZD       0.070700
     82 H24         63.0090    -3.5530    17.7440 hc         1 CZD       0.070700
     83 H25         62.7880    -1.0840    18.2270 h1         1 CZD       0.031200
     84 H26         61.2720    -1.0670    17.2860 h1         1 CZD       0.031200
     85 H27         65.2280    -3.4430    17.8260 h1         1 CZD       0.048033
     86 H28         66.7100    -4.2480    17.2720 h1         1 CZD       0.048033
     87 H29         66.2120    -2.7150    16.5200 h1         1 CZD       0.048033
     88 H30         65.0070    -6.0760    14.6250 h1         1 CZD       0.099700
     89 H31         66.2510    -4.4170    13.0510 ha         1 CZD       0.124000
     90 H32         68.4490    -4.0850    11.9910 ha         1 CZD       0.121000
     91 H33         68.1750    -6.3870    16.3860 ha         1 CZD       0.122000
     92 H34         69.7400    -8.3450    15.2280 ha         1 CZD       0.126000
     93 H35         73.3580    -8.3040    17.5840 ha         1 CZD       0.113000
     94 H36         73.5700    -5.8820    17.2060 ha         1 CZD       0.119000
     95 H37         73.0040    -3.5820    17.3540 h1         1 CZD       0.041200
     96 H38         73.8060    -3.8900    15.7890 h1         1 CZD       0.041200
     97 H39         72.4700    -2.0540    14.7360 h1         1 CZD       0.043700
     98 H40         71.6580    -1.7410    16.2880 h1         1 CZD       0.043700
     99 H41         71.4950   -10.1700    17.8440 hc         1 CZD       0.066700
    100 H42         72.2960   -10.5140    16.3320 hc         1 CZD       0.066700
    101 H43         70.1060   -10.7070    15.1740 h1         1 CZD       0.094700
    102 H44         67.0620    -8.7190    17.7630 h1         1 CZD       0.083700
    103 H45         65.8750   -10.9250    17.8780 hc         1 CZD       0.053700
    104 H46         64.7110    -9.5850    17.8030 hc         1 CZD       0.053700
    105 H47         65.0340   -10.5620    16.3530 hc         1 CZD       0.053700
    106 H48         70.7450    -3.1680    11.9630 h1         1 CZD       0.044700
    107 H49         70.5000    -4.6120    10.9490 h1         1 CZD       0.044700
    108 H50         73.1220    -3.8320    12.3580 h1         1 CZD       0.038700
    109 H51         72.7820    -3.5810    10.6320 h1         1 CZD       0.038700
    110 H52         74.1260    -5.5600    11.1610 hn         1 CZD       0.402500
    111 H53         72.8990    -6.1970    11.9970 hn         1 CZD       0.402500
    112 H55         73.4090    -0.1830    15.9160 hn         1 CZD       0.400000
    113 H56         73.7350    -1.0670    17.2250 hn         1 CZD       0.400000
    114 H58         68.8440   -10.0410    17.8350 hn         1 CZD       0.333500
    115 H59         66.3460    -8.0890    15.0100 hn         1 CZD       0.336500
    116 H60         70.4800   -14.9950    15.9770 h1         1 CZD       0.071200
    117 H61         72.0080   -14.7900    15.1040 h1         1 CZD       0.071200
    118 H62         71.6480   -15.2570    18.0470 h4         1 CZD      -0.034200
    119 H63         71.6860   -12.4810    15.1380 hn         1 CZD       0.321500
    120 H64         73.7480   -14.8310    18.3360 hn         1 CZD       0.379400
    121 C11         56.9700     2.5390     6.6080 c3         1 CZD      -0.007700
    122 C           61.3980     2.5060    14.3730 c3         1 CZD      -0.155400
    123 C15         62.3640    -0.4400    14.7170 c          1 CZD       0.624700
    124 O3          67.7230   -10.0910    14.8830 o          1 CZD      -0.618100
    125 N3          61.1870    -2.1350    19.0930 n8         1 CZD      -0.999200
    126 C20         65.8450    -3.6570    16.9460 c3         1 CZD       0.094300
@<TRIPOS>BOND
     1     1     3 1   
     2     1    11 ar  
     3     1    14 ar  
     4     2    60 1   
     5     2    61 1   
     6     2    62 1   
     7     2   121 1   
     8     3     4 ar  
     9     3     8 ar  
    10     4     5 ar  
    11     4    63 1   
    12     5     6 ar  
    13     5    64 1   
    14     6     7 ar  
    15     6   121 1   
    16     7     8 ar  
    17     7    65 1   
    18     8    66 1   
    19     9    67 1   
    20     9    68 1   
    21     9    69 1   
    22     9   121 1   
    23    10    70 1   
    24    10    71 1   
    25    10    72 1   
    26    10   121 1   
    27    11    16 ar  
    28    12    17 1   
    29    12    73 1   
    30    12   123 1   
    31    13    14 ar  
    32    13    21 ar  
    33    13    74 1   
    34    15   123 2   
    35    16    21 ar  
    36    16   122 1   
    37    17    18 1   
    38    17    20 1   
    39    17    80 1   
    40    18    19 1   
    41    18    81 1   
    42    18    82 1   
    43    19    83 1   
    44    19    84 1   
    45    19   125 1   
    46    20    47 1   
    47    20    51 2   
    48    21   123 1   
    49    22    23 1   
    50    22    41 1   
    51    22    47 1   
    52    22    88 1   
    53    23    24 ar  
    54    23    28 ar  
    55    24    25 ar  
    56    24    89 1   
    57    25    26 ar  
    58    25    90 1   
    59    26    27 ar  
    60    26    55 1   
    61    27    28 ar  
    62    27    29 1   
    63    28    91 1   
    64    29    30 ar  
    65    29    34 ar  
    66    30    31 ar  
    67    30    92 1   
    68    31    32 ar  
    69    31    37 1   
    70    32    33 ar  
    71    32    93 1   
    72    33    34 ar  
    73    33    94 1   
    74    34    52 1   
    75    35    36 1   
    76    35    52 1   
    77    35    95 1   
    78    35    96 1   
    79    36    48 1   
    80    36    97 1   
    81    36    98 1   
    82    37    38 1   
    83    37    99 1   
    84    37   100 1   
    85    38    43 1   
    86    38    49 1   
    87    38   101 1   
    88    39    40 1   
    89    39    49 1   
    90    39   124 2   
    91    40    42 1   
    92    40    50 1   
    93    40   102 1   
    94    41    50 1   
    95    41    53 2   
    96    42   103 1   
    97    42   104 1   
    98    42   105 1   
    99    43    54 2   
   100    43    58 1   
   101    44    45 1   
   102    44    55 1   
   103    44   106 1   
   104    44   107 1   
   105    45    46 1   
   106    45   108 1   
   107    45   109 1   
   108    46   110 1   
   109    46   111 1   
   110    47   126 1   
   111    48   112 1   
   112    48   113 1   
   113    49   114 1   
   114    50   115 1   
   115    56    57 1   
   116    56    58 1   
   117    56   116 1   
   118    56   117 1   
   119    57    59 2   
   120    57   118 1   
   121    58   119 1   
   122    59   120 1   
   123    75   125 1   
   124    76   125 1   
   125    77   122 1   
   126    78   122 1   
   127    79   122 1   
   128    85   126 1   
   129    86   126 1   
   130    87   126 1   
@<TRIPOS>SUBSTRUCTURE
     1 CZD         1 TEMP              0 ****  ****    0 ROOT
