@<TRIPOS>MOLECULE
CZD
  126   130     1     0     0
SMALL
abcg2


@<TRIPOS>ATOM
      1 C4          59.9090     0.3460    11.0810 cp         1 CZD       0.221500
      2 C14         54.2530     0.8190     7.9180 c3         1 CZD      -0.082767
      3 C5          58.7880     0.7070    10.1870 cp         1 CZD      -0.165500
      4 C6          57.5520     1.1060    10.7090 ca         1 CZD      -0.060500
      5 C7          56.5020     1.4320     9.8670 ca         1 CZD      -0.128000
      6 C8          56.6300     1.3750     8.4730 ca         1 CZD      -0.040300
      7 C9          57.8680     0.9790     7.9620 ca         1 CZD      -0.128000
      8 C10         58.9280     0.6520     8.7990 ca         1 CZD      -0.060500
      9 C12         55.0420     3.2040     7.8530 c3         1 CZD      -0.082767
     10 C13         55.7620     1.5910     6.0910 c3         1 CZD      -0.082767
     11 N1          61.0700    -0.0080    10.5140 nb         1 CZD      -0.201000
     12 N2          62.7230    -1.5440    14.6260 ns         1 CZD      -0.479900
     13 C3          60.7090     0.0300    13.1840 ca         1 CZD       0.135900
     14 N           59.6940     0.3830    12.4020 nb         1 CZD      -0.190000
     15 O           64.2100    -0.3000    13.4530 o          1 CZD      -0.597100
     16 C1          62.0950    -0.3540    11.2920 ca         1 CZD       0.192300
     17 C16         63.7200    -2.0890    15.5240 c3         1 CZD       0.042700
     18 C17         63.0480    -2.6850    16.7640 c3         1 CZD      -0.091400
     19 C18         62.4250    -1.6330    17.6730 c3         1 CZD       0.151800
     20 C19         64.5240    -3.1820    14.7980 c          1 CZD       0.586100
     21 C2          61.9500    -0.3540    12.6890 ca         1 CZD      -0.266600
     22 C21         66.4660    -4.5570    14.5490 c3         1 CZD       0.085000
     23 C22         67.9770    -4.4300    14.5710 ca         1 CZD      -0.150300
     24 C23         68.6260    -3.5110    13.7520 ca         1 CZD      -0.043000
     25 C24         70.0140    -3.4190    13.7460 ca         1 CZD      -0.206000
     26 C25         70.7850    -4.2720    14.5420 ca         1 CZD       0.185100
     27 C26         70.1480    -5.2060    15.3760 cp         1 CZD      -0.058000
     28 C27         68.7570    -5.2450    15.3810 ca         1 CZD      -0.058000
     29 C28         70.8570    -6.2360    16.1730 cp         1 CZD      -0.055000
     30 C29         70.4980    -7.5660    15.9530 ca         1 CZD      -0.068000
     31 C30         70.9610    -8.6140    16.7390 ca         1 CZD      -0.118300
     32 C31         71.8710    -8.2980    17.7480 ca         1 CZD      -0.068000
     33 C32         72.2800    -6.9880    17.9720 ca         1 CZD      -0.196000
     34 C33         71.7600    -5.9430    17.2040 ca         1 CZD       0.167100
     35 C34         73.0440    -4.2840    18.3710 c3         1 CZD       0.162600
     36 C35         73.1900    -2.7740    18.3370 c3         1 CZD       0.146800
     37 C36         70.4960   -10.0450    16.5680 c3         1 CZD      -0.031100
     38 C37         69.5190   -10.3120    15.4120 c3         1 CZD       0.032700
     39 C38         67.6450    -8.9500    14.5990 c          1 CZD       0.576100
     40 C39         66.2850    -8.3340    14.9370 c3         1 CZD       0.038700
     41 C40         66.0110    -5.8950    15.1680 c          1 CZD       0.589100
     42 C41         65.1580    -9.1820    14.3460 c3         1 CZD      -0.096100
     43 C42         69.2820   -11.8250    15.3030 c          1 CZD       0.589100
     44 C45         72.8530    -3.3230    13.7580 c3         1 CZD       0.161600
     45 C46         74.3230    -3.5240    14.0440 c3         1 CZD       0.151800
     46 N10         74.7690    -4.8460    13.5930 n8         1 CZD      -1.000200
     47 N4          65.7870    -3.4380    15.2070 n          1 CZD      -0.380800
     48 N5          74.1840    -2.3580    19.3300 n8         1 CZD      -1.007200
     49 N6          68.2500    -9.6290    15.5870 ns         1 CZD      -0.480900
     50 N7          66.2880    -6.9750    14.4130 ns         1 CZD      -0.492900
     51 O1          63.9960    -3.8160    13.8830 o          1 CZD      -0.616100
     52 O2          72.0310    -4.6320    17.4280 os         1 CZD      -0.347100
     53 O4          65.4810    -5.9560    16.2720 o          1 CZD      -0.605100
     54 O5          68.3680   -12.3770    15.9090 o          1 CZD      -0.602100
     55 O6          72.1370    -4.2930    14.5300 os         1 CZD      -0.345100
     56 C43         70.1860   -13.9230    14.4330 c3         1 CZD       0.047700
     57 C44         70.9440   -14.6120    15.5360 c2         1 CZD       0.395200
     58 N8          70.1570   -12.4820    14.5210 ns         1 CZD      -0.484900
     59 N9          71.5200   -13.9890    16.4740 n2         1 CZD      -0.744100
     60 H1          53.9480     0.9180     8.9600 hc         1 CZD       0.036478
     61 H2          53.3970     1.0740     7.2900 hc         1 CZD       0.036478
     62 H3          54.5120    -0.2270     7.7370 hc         1 CZD       0.036478
     63 H4          57.4200     1.1570    11.7800 ha         1 CZD       0.133000
     64 H5          55.5620     1.7350    10.3090 ha         1 CZD       0.114500
     65 H6          58.0220     0.9190     6.8950 ha         1 CZD       0.114500
     66 H7          59.8730     0.3460     8.3740 ha         1 CZD       0.133000
     67 H8          54.7560     3.3560     8.8940 hc         1 CZD       0.036478
     68 H9          55.8700     3.8780     7.6250 hc         1 CZD       0.036478
     69 H10         54.1920     3.4800     7.2240 hc         1 CZD       0.036478
     70 H11         56.0370     0.5660     5.8390 hc         1 CZD       0.036478
     71 H12         54.8790     1.8550     5.5060 hc         1 CZD       0.036478
     72 H13         56.5760     2.2510     5.7850 hc         1 CZD       0.036478
     73 H14         61.8330    -2.0160    14.5810 hn         1 CZD       0.322500
     74 H15         60.5340     0.0650    14.2540 h4         1 CZD       0.024100
     75 H16         61.4220    -1.5690    19.4550 hn         1 CZD       0.395000
     76 H17         60.9840    -2.8130    18.5140 hn         1 CZD       0.395000
     77 H19         63.1510    -0.9860     9.5610 hc         1 CZD       0.067367
     78 H20         64.0820     0.0690    10.6380 hc         1 CZD       0.067367
     79 H21         63.8310    -1.6080    11.0870 hc         1 CZD       0.067367
     80 H22         64.3760    -1.2680    15.8070 h1         1 CZD       0.088700
     81 H23         62.2840    -3.3980    16.4360 hc         1 CZD       0.070700
     82 H24         63.7840    -3.2570    17.3320 hc         1 CZD       0.070700
     83 H25         63.2130    -0.9710    18.0430 h1         1 CZD       0.031200
     84 H26         61.7310    -1.0120    17.0930 h1         1 CZD       0.031200
     85 H27         65.7940    -2.1020    16.8340 h1         1 CZD       0.048033
     86 H28         66.6330    -3.6250    17.1170 h1         1 CZD       0.048033
     87 H29         67.3700    -2.3800    16.0940 h1         1 CZD       0.048033
     88 H30         66.1360    -4.5530    13.5110 h1         1 CZD       0.099700
     89 H31         68.0500    -2.8590    13.1070 ha         1 CZD       0.124000
     90 H32         70.4920    -2.7060    13.0910 ha         1 CZD       0.121000
     91 H33         68.2850    -5.9600    16.0410 ha         1 CZD       0.122000
     92 H34         69.8200    -7.7540    15.1360 ha         1 CZD       0.126000
     93 H35         72.2660    -9.0850    18.3800 ha         1 CZD       0.113000
     94 H36         72.9790    -6.7840    18.7700 ha         1 CZD       0.119000
     95 H37         72.7560    -4.6160    19.3740 h1         1 CZD       0.041200
     96 H38         73.9880    -4.7660    18.1030 h1         1 CZD       0.041200
     97 H39         73.5400    -2.4740    17.3470 h1         1 CZD       0.043700
     98 H40         72.2010    -2.3220    18.4880 h1         1 CZD       0.043700
     99 H41         70.0280   -10.3830    17.4970 hc         1 CZD       0.066700
    100 H42         71.3640   -10.6930    16.4180 hc         1 CZD       0.066700
    101 H43         69.9430    -9.9500    14.4770 h1         1 CZD       0.094700
    102 H44         66.1630    -8.2620    16.0160 h1         1 CZD       0.083700
    103 H45         65.1880   -10.1930    14.7580 hc         1 CZD       0.053700
    104 H46         64.1960    -8.7320    14.5900 hc         1 CZD       0.053700
    105 H47         65.2550    -9.2410    13.2610 hc         1 CZD       0.053700
    106 H48         72.5440    -2.3160    14.0490 h1         1 CZD       0.044700
    107 H49         72.6410    -3.4710    12.6950 h1         1 CZD       0.044700
    108 H50         74.4960    -3.3490    15.1140 h1         1 CZD       0.038700
    109 H51         74.8760    -2.7600    13.4940 h1         1 CZD       0.038700
    110 H52         75.7630    -4.9490    13.7670 hn         1 CZD       0.402500
    111 H53         74.3100    -5.5610    14.1490 hn         1 CZD       0.402500
    112 H55         74.3960    -1.3740    19.2100 hn         1 CZD       0.400000
    113 H56         73.7980    -2.4520    20.2650 hn         1 CZD       0.400000
    114 H58         67.7780    -9.7260    16.4730 hn         1 CZD       0.333500
    115 H59         66.7730    -6.8460    13.5360 hn         1 CZD       0.336500
    116 H60         69.1630   -14.3060    14.4330 h1         1 CZD       0.071200
    117 H61         70.6280   -14.2110    13.4760 h1         1 CZD       0.071200
    118 H62         70.9510   -15.7040    15.4500 h4         1 CZD      -0.034200
    119 H63         70.9110   -11.9660    14.0980 hn         1 CZD       0.321500
    120 H64         71.9750   -14.6400    17.1150 hn         1 CZD       0.379400
    121 C11         55.4420     1.7400     7.5830 c3         1 CZD      -0.007700
    122 C           63.3630    -0.7520    10.6020 c3         1 CZD      -0.155400
    123 C15         63.0660    -0.7270    13.6080 c          1 CZD       0.624700
    124 O3          68.1320    -8.7990    13.4790 o          1 CZD      -0.618100
    125 N3          61.7880    -2.2780    18.8280 n8         1 CZD      -0.999200
    126 C20         66.4300    -2.8500    16.3780 c3         1 CZD       0.094300
@<TRIPOS>BOND
     1     1     3 1   
     2     1    11 ar  
     3     1    14 ar  
     4     2    60 1   
     5     2    61 1   
     6     2    62 1   
     7     2   121 1   
     8     3     4 ar  
     9     3     8 ar  
    10     4     5 ar  
    11     4    63 1   
    12     5     6 ar  
    13     5    64 1   
    14     6     7 ar  
    15     6   121 1   
    16     7     8 ar  
    17     7    65 1   
    18     8    66 1   
    19     9    67 1   
    20     9    68 1   
    21     9    69 1   
    22     9   121 1   
    23    10    70 1   
    24    10    71 1   
    25    10    72 1   
    26    10   121 1   
    27    11    16 ar  
    28    12    17 1   
    29    12    73 1   
    30    12   123 1   
    31    13    14 ar  
    32    13    21 ar  
    33    13    74 1   
    34    15   123 2   
    35    16    21 ar  
    36    16   122 1   
    37    17    18 1   
    38    17    20 1   
    39    17    80 1   
    40    18    19 1   
    41    18    81 1   
    42    18    82 1   
    43    19    83 1   
    44    19    84 1   
    45    19   125 1   
    46    20    47 1   
    47    20    51 2   
    48    21   123 1   
    49    22    23 1   
    50    22    41 1   
    51    22    47 1   
    52    22    88 1   
    53    23    24 ar  
    54    23    28 ar  
    55    24    25 ar  
    56    24    89 1   
    57    25    26 ar  
    58    25    90 1   
    59    26    27 ar  
    60    26    55 1   
    61    27    28 ar  
    62    27    29 1   
    63    28    91 1   
    64    29    30 ar  
    65    29    34 ar  
    66    30    31 ar  
    67    30    92 1   
    68    31    32 ar  
    69    31    37 1   
    70    32    33 ar  
    71    32    93 1   
    72    33    34 ar  
    73    33    94 1   
    74    34    52 1   
    75    35    36 1   
    76    35    52 1   
    77    35    95 1   
    78    35    96 1   
    79    36    48 1   
    80    36    97 1   
    81    36    98 1   
    82    37    38 1   
    83    37    99 1   
    84    37   100 1   
    85    38    43 1   
    86    38    49 1   
    87    38   101 1   
    88    39    40 1   
    89    39    49 1   
    90    39   124 2   
    91    40    42 1   
    92    40    50 1   
    93    40   102 1   
    94    41    50 1   
    95    41    53 2   
    96    42   103 1   
    97    42   104 1   
    98    42   105 1   
    99    43    54 2   
   100    43    58 1   
   101    44    45 1   
   102    44    55 1   
   103    44   106 1   
   104    44   107 1   
   105    45    46 1   
   106    45   108 1   
   107    45   109 1   
   108    46   110 1   
   109    46   111 1   
   110    47   126 1   
   111    48   112 1   
   112    48   113 1   
   113    49   114 1   
   114    50   115 1   
   115    56    57 1   
   116    56    58 1   
   117    56   116 1   
   118    56   117 1   
   119    57    59 2   
   120    57   118 1   
   121    58   119 1   
   122    59   120 1   
   123    75   125 1   
   124    76   125 1   
   125    77   122 1   
   126    78   122 1   
   127    79   122 1   
   128    85   126 1   
   129    86   126 1   
   130    87   126 1   
@<TRIPOS>SUBSTRUCTURE
     1 CZD         1 TEMP              0 ****  ****    0 ROOT
