@<TRIPOS>MOLECULE
CZE
   51    53     1     0     0
SMALL
No Charge or Current Charge


@<TRIPOS>ATOM
      1 OAC          8.2860     0.3650     1.5200 o          1 CZE      -0.723500
      2 CBA          7.2320    -0.1860     1.2240 c          1 CZE       0.726000
      3 OAD          6.6410    -0.9380     1.9910 o          1 CZE      -0.723500
      4 CAZ          6.6410     0.0990    -0.1990 c3         1 CZE       0.007600
      5 OAB          5.3830    -0.5700    -0.4630 os         1 CZE      -0.404000
      6 CAO          4.8460    -0.3300    -1.7800 c3         1 CZE       0.163600
      7 CAL          3.4950    -1.0880    -1.9420 c3         1 CZE       0.175800
      8 NAF          2.3850    -0.6830    -1.0330 n3         1 CZE      -0.688600
      9 CAJ          1.1900    -1.5660    -1.1740 c6         1 CZE       0.171300
     10 CAH          0.0360    -1.1720    -0.1980 c6         1 CZE       0.157300
     11 CAI          1.9750     0.7470    -1.1840 c6         1 CZE       0.171300
     12 CAG          0.8180     1.1420    -0.2120 c6         1 CZE       0.157300
     13 NAE         -0.3840     0.2580    -0.3560 n3         1 CZE      -0.721600
     14 CAK         -1.5040     0.6420     0.5510 c3         1 CZE       0.274100
     15 CAM         -2.7380    -0.2580     0.4120 ca         1 CZE      -0.067300
     16 CAP         -3.3740    -0.7630     1.5660 ca         1 CZE      -0.088000
     17 CAT         -4.5110    -1.5830     1.4510 ca         1 CZE      -0.109500
     18 CAX         -5.0200    -1.9030     0.1830 ca         1 CZE       0.118000
     19 ClAA        -6.4410    -2.9300     0.0400 cl         1 CZE      -0.222000
     20 CAU         -4.3970    -1.4050    -0.9720 ca         1 CZE      -0.109500
     21 CAQ         -3.2610    -0.5850    -0.8580 ca         1 CZE      -0.088000
     22 CAN         -1.9320     2.1080     0.4100 ca         1 CZE      -0.075300
     23 CAR         -2.1620     2.6810    -0.8600 ca         1 CZE      -0.094500
     24 CAV         -2.5620     4.0240    -0.9750 ca         1 CZE      -0.116500
     25 CAY         -2.7380     4.8060     0.1780 ca         1 CZE      -0.113000
     26 CAW         -2.5150     4.2450     1.4460 ca         1 CZE      -0.116500
     27 CAS         -2.1140     2.9020     1.5620 ca         1 CZE      -0.094500
     28 H2           6.5110     1.1860    -0.2960 h1         1 CZE      -0.004800
     29 H3           7.3910    -0.2120    -0.9390 h1         1 CZE      -0.004800
     30 H4           4.6980     0.7440    -1.9500 h1         1 CZE      -0.002800
     31 H5           5.5470    -0.6940    -2.5430 h1         1 CZE      -0.002800
     32 H6           3.1700    -0.9660    -2.9840 h1         1 CZE       0.024700
     33 H7           3.7020    -2.1580    -1.8050 h1         1 CZE       0.024700
     34 H9           0.8060    -1.5210    -2.2040 h1         1 CZE       0.031950
     35 H10          1.4670    -2.6130    -0.9810 h1         1 CZE       0.031950
     36 H11         -0.8080    -1.8510    -0.3820 h1         1 CZE       0.044200
     37 H12          0.3730    -1.3550     0.8330 h1         1 CZE       0.044200
     38 H13          2.8250     1.4150    -0.9880 h1         1 CZE       0.031950
     39 H14          1.6450     0.9380    -2.2170 h1         1 CZE       0.031950
     40 H15          1.1990     1.0950     0.8190 h1         1 CZE       0.044200
     41 H16          0.5580     2.1920    -0.4070 h1         1 CZE       0.044200
     42 H18         -1.1390     0.5190     1.5800 h1         1 CZE       0.037700
     43 H19         -2.9890    -0.5180     2.5540 ha         1 CZE       0.125500
     44 H20         -4.9960    -1.9690     2.3440 ha         1 CZE       0.124000
     45 H21         -4.7920    -1.6550    -1.9530 ha         1 CZE       0.124000
     46 H22         -2.7800    -0.2070    -1.7580 ha         1 CZE       0.125500
     47 H23         -2.0230     2.0860    -1.7590 ha         1 CZE       0.118500
     48 H24         -2.7330     4.4570    -1.9570 ha         1 CZE       0.107500
     49 H25         -3.0480     5.8460     0.0890 ha         1 CZE       0.106000
     50 H26         -2.6520     4.8490     2.3400 ha         1 CZE       0.107500
     51 H27         -1.9470     2.4780     2.5490 ha         1 CZE       0.118500
@<TRIPOS>BOND
     1     1     2 1   
     2     2     3 1   
     3     2     4 1   
     4     4     5 1   
     5     4    28 1   
     6     4    29 1   
     7     5     6 1   
     8     6     7 1   
     9     6    30 1   
    10     6    31 1   
    11     7     8 1   
    12     7    32 1   
    13     7    33 1   
    14     8     9 1   
    15     8    11 1   
    16     9    10 1   
    17     9    34 1   
    18     9    35 1   
    19    10    13 1   
    20    10    36 1   
    21    10    37 1   
    22    11    12 1   
    23    11    38 1   
    24    11    39 1   
    25    12    13 1   
    26    12    40 1   
    27    12    41 1   
    28    13    14 1   
    29    14    15 1   
    30    14    22 1   
    31    14    42 1   
    32    15    16 ar  
    33    15    21 ar  
    34    16    17 ar  
    35    16    43 1   
    36    17    18 ar  
    37    17    44 1   
    38    18    19 1   
    39    18    20 ar  
    40    20    21 ar  
    41    20    45 1   
    42    21    46 1   
    43    22    23 ar  
    44    22    27 ar  
    45    23    24 ar  
    46    23    47 1   
    47    24    25 ar  
    48    24    48 1   
    49    25    26 ar  
    50    25    49 1   
    51    26    27 ar  
    52    26    50 1   
    53    27    51 1   
@<TRIPOS>SUBSTRUCTURE
     1 CZE         1 TEMP              0 ****  ****    0 ROOT
