@<TRIPOS>MOLECULE
CZE
   51    53     1     0     0
SMALL
abcg2


@<TRIPOS>ATOM
      1 OAC          8.0770    -0.1870     1.5640 o          1 CZE      -0.723500
      2 CBA          6.9710    -0.6500     1.2170 c          1 CZE       0.726000
      3 OAD          6.2710    -1.4740     1.8260 o          1 CZE      -0.723500
      4 CAZ          6.4570    -0.1140    -0.1280 c3         1 CZE       0.007600
      5 OAB          5.2030    -0.6460    -0.4620 os         1 CZE      -0.404000
      6 CAO          4.7500    -0.2050    -1.7120 c3         1 CZE       0.163600
      7 CAL          3.4130    -0.8440    -2.0260 c3         1 CZE       0.175800
      8 NAF          2.3600    -0.4910    -1.0950 n3         1 CZE      -0.688600
      9 CAJ          1.2330    -1.3950    -1.1910 c6         1 CZE       0.171300
     10 CAH          0.1720    -1.0550    -0.1630 c6         1 CZE       0.157300
     11 CAI          1.9020     0.8740    -1.2530 c6         1 CZE       0.171300
     12 CAG          0.8360     1.2120    -0.2310 c6         1 CZE       0.157300
     13 NAE         -0.3000     0.3090    -0.3450 n3         1 CZE      -0.721600
     14 CAK         -1.3590     0.6540     0.5870 c3         1 CZE       0.274100
     15 CAM         -2.5550    -0.2700     0.4640 ca         1 CZE      -0.067300
     16 CAP         -3.2410    -0.6620     1.6070 ca         1 CZE      -0.088000
     17 CAT         -4.3860    -1.4430     1.5290 ca         1 CZE      -0.109500
     18 CAX         -4.8420    -1.8410     0.2840 ca         1 CZE       0.118000
     19 CLAA        -6.2700    -2.8200     0.1670 cl         1 CZE      -0.222000
     20 CAU         -4.1710    -1.4720    -0.8730 ca         1 CZE      -0.109500
     21 CAQ         -3.0340    -0.6870    -0.7750 ca         1 CZE      -0.088000
     22 CAN         -1.8610     2.0720     0.3860 ca         1 CZE      -0.075300
     23 CAR         -2.0800     2.5910    -0.8890 ca         1 CZE      -0.094500
     24 CAV         -2.5990     3.8670    -1.0500 ca         1 CZE      -0.116500
     25 CAY         -2.9130     4.6430     0.0610 ca         1 CZE      -0.113000
     26 CAW         -2.6940     4.1340     1.3330 ca         1 CZE      -0.116500
     27 CAS         -2.1690     2.8570     1.4910 ca         1 CZE      -0.094500
     28 H2           6.4180     0.9850    -0.0790 h1         1 CZE      -0.004800
     29 H3           7.2030    -0.3490    -0.9050 h1         1 CZE      -0.004800
     30 H4           4.6790     0.8930    -1.7420 h1         1 CZE      -0.002800
     31 H5           5.4550    -0.4820    -2.5100 h1         1 CZE      -0.002800
     32 H6           3.1480    -0.5840    -3.0660 h1         1 CZE       0.024700
     33 H7           3.5360    -1.9300    -2.0050 h1         1 CZE       0.024700
     34 H9           0.7730    -1.3780    -2.1950 h1         1 CZE       0.031950
     35 H10          1.5780    -2.4160    -1.0130 h1         1 CZE       0.031950
     36 H11         -0.6530    -1.7570    -0.2780 h1         1 CZE       0.044200
     37 H12          0.5830    -1.2030     0.8510 h1         1 CZE       0.044200
     38 H13          2.7330     1.5680    -1.1170 h1         1 CZE       0.031950
     39 H14          1.5000     1.0520    -2.2670 h1         1 CZE       0.031950
     40 H15          1.2750     1.1710     0.7810 h1         1 CZE       0.044200
     41 H16          0.5120     2.2380    -0.4010 h1         1 CZE       0.044200
     42 H18         -0.9990     0.5800     1.6290 h1         1 CZE       0.037700
     43 H19         -2.8810    -0.3560     2.5820 ha         1 CZE       0.125500
     44 H20         -4.9090    -1.7370     2.4290 ha         1 CZE       0.124000
     45 H21         -4.5300    -1.7920    -1.8420 ha         1 CZE       0.124000
     46 H22         -2.5060    -0.4140    -1.6800 ha         1 CZE       0.125500
     47 H23         -1.8270     2.0020    -1.7610 ha         1 CZE       0.118500
     48 H24         -2.7590     4.2580    -2.0460 ha         1 CZE       0.107500
     49 H25         -3.3200     5.6370    -0.0680 ha         1 CZE       0.106000
     50 H26         -2.9260     4.7310     2.2060 ha         1 CZE       0.107500
     51 H27         -1.9950     2.4690     2.4880 ha         1 CZE       0.118500
@<TRIPOS>BOND
     1     1     2 1   
     2     2     3 1   
     3     2     4 1   
     4     4     5 1   
     5     4    28 1   
     6     4    29 1   
     7     5     6 1   
     8     6     7 1   
     9     6    30 1   
    10     6    31 1   
    11     7     8 1   
    12     7    32 1   
    13     7    33 1   
    14     8     9 1   
    15     8    11 1   
    16     9    10 1   
    17     9    34 1   
    18     9    35 1   
    19    10    13 1   
    20    10    36 1   
    21    10    37 1   
    22    11    12 1   
    23    11    38 1   
    24    11    39 1   
    25    12    13 1   
    26    12    40 1   
    27    12    41 1   
    28    13    14 1   
    29    14    15 1   
    30    14    22 1   
    31    14    42 1   
    32    15    16 ar  
    33    15    21 ar  
    34    16    17 ar  
    35    16    43 1   
    36    17    18 ar  
    37    17    44 1   
    38    18    19 1   
    39    18    20 ar  
    40    20    21 ar  
    41    20    45 1   
    42    21    46 1   
    43    22    23 ar  
    44    22    27 ar  
    45    23    24 ar  
    46    23    47 1   
    47    24    25 ar  
    48    24    48 1   
    49    25    26 ar  
    50    25    49 1   
    51    26    27 ar  
    52    26    50 1   
    53    27    51 1   
@<TRIPOS>SUBSTRUCTURE
     1 CZE         1 TEMP              0 ****  ****    0 ROOT
