@<TRIPOS>MOLECULE
CZG
   46    49     1     0     0
SMALL
No Charge or Current Charge


@<TRIPOS>ATOM
      1 C4           7.3170     1.2950    -0.2250 ca         1 CZG      -0.204200
      2 C5           8.0030     0.0530    -0.3620 ca         1 CZG      -0.040000
      3 C6           7.2860    -1.1620    -0.3860 ca         1 CZG      -0.122000
      4 C7           5.8940    -1.0970    -0.2730 ca         1 CZG      -0.040200
      5 C15         -2.8350    -0.5840     0.4630 ca         1 CZG      -0.064000
      6 C17         -4.8990     0.7130     0.6720 ca         1 CZG      -0.137000
      7 C20         -7.8160     0.4930     0.2120 ca         1 CZG       0.093100
      8 C21         -8.9410     0.9850     0.8940 ca         1 CZG      -0.117000
      9 C22         -9.7770     1.9370     0.2820 ca         1 CZG      -0.102000
     10 C24         -8.3720     1.8890    -1.7070 ca         1 CZG      -0.102000
     11 C26         -4.9980    -1.7140     0.6260 ca         1 CZG      -0.137000
     12 O1           9.3120     2.5350    -0.2990 o          1 CZG      -0.402500
     13 N2           8.0780     2.5820    -0.1990 no         1 CZG       0.697200
     14 O3           7.4410     3.6370    -0.0790 o          1 CZG      -0.402500
     15 N8           4.9690    -2.0970    -0.2660 na         1 CZG      -0.295600
     16 C9           3.7460    -1.4620    -0.1280 cc         1 CZG       0.415700
     17 S10          2.2480    -2.3800    -0.0720 ss         1 CZG      -0.132200
     18 C11          0.9710    -1.0430     0.1180 c3         1 CZG      -0.062400
     19 C12         -0.4680    -1.5700     0.1960 c          1 CZG       0.617100
     20 O13         -0.7380    -2.7650     0.1310 o          1 CZG      -0.572100
     21 N14         -1.4150    -0.5620     0.3430 ns         1 CZG      -0.135000
     22 C16         -3.4990     0.6550     0.5510 ca         1 CZG      -0.106500
     23 C18         -5.6520    -0.4750     0.6980 ca         1 CZG       0.122100
     24 O19         -7.0220    -0.4490     0.8290 os         1 CZG      -0.253200
     25 C23         -9.4900     2.3900    -1.0170 ca         1 CZG      -0.110000
     26 C25         -7.5360     0.9380    -1.0960 ca         1 CZG      -0.117000
     27 C27         -3.5980    -1.7740     0.5050 ca         1 CZG      -0.106500
     28 N28          3.8340    -0.1250    -0.0460 nd         1 CZG      -0.583100
     29 C29          5.2110     0.0850    -0.1400 ca         1 CZG       0.057400
     30 C30          5.9000     1.3070    -0.1130 ca         1 CZG       0.025000
     31 H1           9.0880     0.0220    -0.4490 ha         1 CZG       0.153000
     32 H2           7.8010    -2.1150    -0.4900 ha         1 CZG       0.133000
     33 H3          -5.3940     1.6780     0.7490 ha         1 CZG       0.131500
     34 H4          -9.1630     0.6320     1.8990 ha         1 CZG       0.129000
     35 H5         -10.6450     2.3210     0.8140 ha         1 CZG       0.118000
     36 H6          -8.1550     2.2360    -2.7160 ha         1 CZG       0.118000
     37 H7          -5.5800    -2.6320     0.6610 ha         1 CZG       0.131500
     38 H8           5.1270    -3.0920    -0.3450 hn         1 CZG       0.375000
     39 H9           1.1740    -0.4760     1.0340 h1         1 CZG       0.102200
     40 H10          1.0350    -0.3580    -0.7350 h1         1 CZG       0.102200
     41 H11         -1.0210     0.3700     0.3720 hn         1 CZG       0.156000
     42 H12         -2.9290     1.5820     0.5280 ha         1 CZG       0.129000
     43 H13        -10.1360     3.1260    -1.4910 ha         1 CZG       0.117000
     44 H14         -6.6800     0.5460    -1.6380 ha         1 CZG       0.129000
     45 H15         -3.1310    -2.7520     0.4510 ha         1 CZG       0.129000
     46 H17          5.3390     2.2330    -0.0070 ha         1 CZG       0.165000
@<TRIPOS>BOND
     1     1     2 ar  
     2     1    13 1   
     3     1    30 ar  
     4     2     3 ar  
     5     2    31 1   
     6     3     4 ar  
     7     3    32 1   
     8     4    15 1   
     9     4    29 ar  
    10     5    21 1   
    11     5    22 ar  
    12     5    27 ar  
    13     6    22 ar  
    14     6    23 ar  
    15     6    33 1   
    16     7     8 ar  
    17     7    24 1   
    18     7    26 ar  
    19     8     9 ar  
    20     8    34 1   
    21     9    25 ar  
    22     9    35 1   
    23    10    25 ar  
    24    10    26 ar  
    25    10    36 1   
    26    11    23 ar  
    27    11    27 ar  
    28    11    37 1   
    29    12    13 1   
    30    13    14 1   
    31    15    16 1   
    32    15    38 1   
    33    16    17 1   
    34    16    28 2   
    35    17    18 1   
    36    18    19 1   
    37    18    39 1   
    38    18    40 1   
    39    19    20 2   
    40    19    21 1   
    41    21    41 1   
    42    22    42 1   
    43    23    24 1   
    44    25    43 1   
    45    26    44 1   
    46    27    45 1   
    47    28    29 1   
    48    29    30 ar  
    49    30    46 1   
@<TRIPOS>SUBSTRUCTURE
     1 CZG         1 TEMP              0 ****  ****    0 ROOT
