@<TRIPOS>MOLECULE
CZG
   46    49     1     0     0
SMALL
abcg2


@<TRIPOS>ATOM
      1 C4           7.2530     1.1730     0.0260 ca         1 CZG      -0.204200
      2 C5           7.8850    -0.0470    -0.2490 ca         1 CZG      -0.040000
      3 C6           7.1400    -1.1980    -0.4030 ca         1 CZG      -0.122000
      4 C7           5.7620    -1.0810    -0.2730 ca         1 CZG      -0.040200
      5 C15         -2.7800    -0.4780     0.2540 ca         1 CZG      -0.064000
      6 C17         -4.9410     0.5820    -0.0200 ca         1 CZG      -0.137000
      7 C20         -7.7370     0.2920     0.0520 ca         1 CZG       0.093100
      8 C21         -8.2250     1.1450     1.0300 ca         1 CZG      -0.117000
      9 C22         -9.0880     2.1710     0.6660 ca         1 CZG      -0.102000
     10 C24         -8.9510     1.4830    -1.6330 ca         1 CZG      -0.102000
     11 C26         -4.8060    -1.7150     0.6610 ca         1 CZG      -0.137000
     12 O1           9.2740     2.2430     0.0920 o          1 CZG      -0.402500
     13 N2           8.0730     2.3580     0.1850 no         1 CZG       0.697200
     14 O3           7.5190     3.4120     0.4040 o          1 CZG      -0.402500
     15 N8           4.7460    -1.9840    -0.3580 na         1 CZG      -0.295600
     16 C9           3.5850    -1.3000    -0.1420 cc         1 CZG       0.415700
     17 S10          2.0690    -2.1470    -0.1690 ss         1 CZG      -0.132200
     18 C11          0.9710    -0.7360     0.1050 c3         1 CZG      -0.062400
     19 C12         -0.4410    -1.2840     0.1360 c          1 CZG       0.617100
     20 O13         -0.6560    -2.4820     0.1030 o          1 CZG      -0.572100
     21 N14         -1.3850    -0.3240     0.2100 ns         1 CZG      -0.135000
     22 C16         -3.5570     0.6320    -0.0640 ca         1 CZG      -0.106500
     23 C18         -5.5720    -0.6010     0.3400 ca         1 CZG       0.122100
     24 O19         -6.9240    -0.7530     0.4180 os         1 CZG      -0.253200
     25 C23         -9.4500     2.3440    -0.6630 ca         1 CZG      -0.110000
     26 C25         -8.0900     0.4530    -1.2800 ca         1 CZG      -0.117000
     27 C27         -3.4230    -1.6590     0.6250 ca         1 CZG      -0.106500
     28 N28          3.7680    -0.0290     0.0750 nd         1 CZG      -0.583100
     29 C29          5.1290     0.1460     0.0000 ca         1 CZG       0.057400
     30 C30          5.8780     1.3000     0.1550 ca         1 CZG       0.025000
     31 H1           8.9590    -0.0980    -0.3420 ha         1 CZG       0.153000
     32 H2           7.6180    -2.1440    -0.6180 ha         1 CZG       0.133000
     33 H3          -5.5040     1.4700    -0.2740 ha         1 CZG       0.131500
     34 H4          -7.9390     1.0040     2.0650 ha         1 CZG       0.129000
     35 H5          -9.4730     2.8380     1.4260 ha         1 CZG       0.118000
     36 H6          -9.2340     1.6110    -2.6700 ha         1 CZG       0.118000
     37 H7          -5.2930    -2.6370     0.9520 ha         1 CZG       0.131500
     38 H8           4.8370    -2.9710    -0.5430 hn         1 CZG       0.375000
     39 H9           1.2130    -0.2540     1.0540 h1         1 CZG       0.102200
     40 H10          1.0970     0.0010    -0.6880 h1         1 CZG       0.102200
     41 H11         -1.0600     0.6310     0.1650 hn         1 CZG       0.156000
     42 H12         -3.0780     1.5600    -0.3530 ha         1 CZG       0.129000
     43 H13        -10.1210     3.1460    -0.9420 ha         1 CZG       0.117000
     44 H14         -7.7010    -0.2230    -2.0320 ha         1 CZG       0.129000
     45 H15         -2.8630    -2.5400     0.8950 ha         1 CZG       0.129000
     46 H17          5.4010     2.2450     0.3700 ha         1 CZG       0.165000
@<TRIPOS>BOND
     1     1     2 ar  
     2     1    13 1   
     3     1    30 ar  
     4     2     3 ar  
     5     2    31 1   
     6     3     4 ar  
     7     3    32 1   
     8     4    15 1   
     9     4    29 ar  
    10     5    21 1   
    11     5    22 ar  
    12     5    27 ar  
    13     6    22 ar  
    14     6    23 ar  
    15     6    33 1   
    16     7     8 ar  
    17     7    24 1   
    18     7    26 ar  
    19     8     9 ar  
    20     8    34 1   
    21     9    25 ar  
    22     9    35 1   
    23    10    25 ar  
    24    10    26 ar  
    25    10    36 1   
    26    11    23 ar  
    27    11    27 ar  
    28    11    37 1   
    29    12    13 1   
    30    13    14 1   
    31    15    16 1   
    32    15    38 1   
    33    16    17 1   
    34    16    28 2   
    35    17    18 1   
    36    18    19 1   
    37    18    39 1   
    38    18    40 1   
    39    19    20 2   
    40    19    21 1   
    41    21    41 1   
    42    22    42 1   
    43    23    24 1   
    44    25    43 1   
    45    26    44 1   
    46    27    45 1   
    47    28    29 1   
    48    29    30 ar  
    49    30    46 1   
@<TRIPOS>SUBSTRUCTURE
     1 CZG         1 TEMP              0 ****  ****    0 ROOT
