@<TRIPOS>MOLECULE
CZH
   55    59     1     0     0
SMALL
No Charge or Current Charge


@<TRIPOS>ATOM
      1 N1           0.1950    -0.5710     1.1930 n2         1 CZH      -0.309200
      2 C2           1.3270     0.1770     1.8520 c5         1 CZH       0.257200
      3 C3           2.3380     0.5170     0.7180 c          1 CZH       0.469800
      4 N4           1.6570     0.0400    -0.3900 n          1 CZH      -0.057800
      5 C5           2.0730     0.0820    -1.7110 cc         1 CZH      -0.083000
      6 C6           1.3210    -0.4390    -2.7590 cd         1 CZH       0.330500
      7 N7           0.0870    -1.0520    -2.4700 nd         1 CZH      -0.631000
      8 C8          -0.2800    -1.0940    -1.1840 cc         1 CZH       0.383300
      9 C9           0.4760    -0.5580    -0.0790 cc         1 CZH      -0.001000
     10 C10          0.7880     1.4880     2.4880 c3         1 CZH       0.002900
     11 C11         -0.2900     1.2930     3.5560 ca         1 CZH      -0.119300
     12 C12          0.0720     1.0520     4.8960 ca         1 CZH      -0.045500
     13 C13         -0.9210     0.8820     5.8770 ca         1 CZH      -0.178500
     14 C14         -2.2770     0.9560     5.5260 ca         1 CZH       0.146100
     15 C15         -2.6450     1.1980     4.1940 ca         1 CZH      -0.178500
     16 C16         -1.6540     1.3640     3.2090 ca         1 CZH      -0.045500
     17 O17         -3.2300     0.7930     6.4850 oh         1 CZH      -0.533100
     18 O18          3.4630     1.0070     0.7450 o          1 CZH      -0.459000
     19 C19          1.7530    -0.3870    -4.1830 ca         1 CZH      -0.170500
     20 C20          0.9390    -0.9360    -5.2070 ca         1 CZH      -0.048000
     21 C21          1.3400    -0.8900    -6.5540 ca         1 CZH      -0.181000
     22 C22          2.5590    -0.2980    -6.9050 ca         1 CZH       0.149100
     23 C23          3.3770     0.2500    -5.9110 ca         1 CZH      -0.181000
     24 C24          2.9830     0.2080    -4.5620 ca         1 CZH      -0.048000
     25 O25          2.9540    -0.2500    -8.2080 oh         1 CZH      -0.531100
     26 C26         -1.6020    -1.7560    -0.8680 c3         1 CZH      -0.078400
     27 C27         -2.6580    -0.7970    -0.3230 ca         1 CZH      -0.069300
     28 C28         -2.9570     0.3980    -1.0080 ca         1 CZH      -0.094500
     29 C29         -3.9280     1.2810    -0.5050 ca         1 CZH      -0.111500
     30 C30         -4.6120     0.9720     0.6830 ca         1 CZH      -0.109000
     31 C31         -4.3240    -0.2210     1.3660 ca         1 CZH      -0.111500
     32 C32         -3.3480    -1.1000     0.8680 ca         1 CZH      -0.094500
     33 O33          1.9600    -0.6290     2.8920 os         1 CZH      -0.187000
     34 O34          2.5300    -1.8780     2.3270 oh         1 CZH      -0.436000
     35 H5           3.0320     0.5690    -1.8040 h4         1 CZH       0.163000
     36 H101         1.6280     2.0460     2.9200 hc         1 CZH       0.066200
     37 H102         0.3950     2.1360     1.6940 hc         1 CZH       0.066200
     38 H12          1.1210     0.9950     5.1790 ha         1 CZH       0.114000
     39 H13         -0.6370     0.6960     6.9090 ha         1 CZH       0.120500
     40 H15         -3.6930     1.2590     3.9130 ha         1 CZH       0.120500
     41 H16         -1.9480     1.5470     2.1780 ha         1 CZH       0.114000
     42 H17         -4.1120     0.8790     6.0630 ho         1 CZH       0.464000
     43 H20         -0.0140    -1.4040    -4.9710 ha         1 CZH       0.125000
     44 H21          0.6950    -1.3190    -7.3170 ha         1 CZH       0.123000
     45 H23          4.3230     0.7100    -6.1840 ha         1 CZH       0.123000
     46 H24          3.6510     0.6460    -3.8270 ha         1 CZH       0.125000
     47 H25          2.2620    -0.6780    -8.7570 ho         1 CZH       0.467000
     48 H261        -1.9970    -2.2460    -1.7660 hc         1 CZH       0.077200
     49 H262        -1.4200    -2.5680    -0.1550 hc         1 CZH       0.077200
     50 H28         -2.4370     0.6430    -1.9320 ha         1 CZH       0.110500
     51 H29         -4.1520     2.2020    -1.0370 ha         1 CZH       0.111500
     52 H30         -5.3650     1.6540     1.0710 ha         1 CZH       0.111000
     53 H31         -4.8550    -0.4630     2.2840 ha         1 CZH       0.111500
     54 H32         -3.1300    -2.0180     1.4090 ha         1 CZH       0.110500
     55 H34          3.4940    -1.7150     2.4390 ho         1 CZH       0.451000
@<TRIPOS>BOND
     1     1     2 1   
     2     1     9 2   
     3     2     3 1   
     4     2    10 1   
     5     2    33 1   
     6     3     4 1   
     7     3    18 2   
     8     4     5 1   
     9     4     9 1   
    10     5     6 2   
    11     5    35 1   
    12     6     7 1   
    13     6    19 1   
    14     7     8 2   
    15     8     9 1   
    16     8    26 1   
    17    10    11 1   
    18    10    36 1   
    19    10    37 1   
    20    11    12 ar  
    21    11    16 ar  
    22    12    13 ar  
    23    12    38 1   
    24    13    14 ar  
    25    13    39 1   
    26    14    15 ar  
    27    14    17 1   
    28    15    16 ar  
    29    15    40 1   
    30    16    41 1   
    31    17    42 1   
    32    19    20 ar  
    33    19    24 ar  
    34    20    21 ar  
    35    20    43 1   
    36    21    22 ar  
    37    21    44 1   
    38    22    23 ar  
    39    22    25 1   
    40    23    24 ar  
    41    23    45 1   
    42    24    46 1   
    43    25    47 1   
    44    26    27 1   
    45    26    48 1   
    46    26    49 1   
    47    27    28 ar  
    48    27    32 ar  
    49    28    29 ar  
    50    28    50 1   
    51    29    30 ar  
    52    29    51 1   
    53    30    31 ar  
    54    30    52 1   
    55    31    32 ar  
    56    31    53 1   
    57    32    54 1   
    58    33    34 1   
    59    34    55 1   
@<TRIPOS>SUBSTRUCTURE
     1 CZH         1 TEMP              0 ****  ****    0 ROOT
