@<TRIPOS>MOLECULE
CZH
   55    59     1     0     0
SMALL
bcc


@<TRIPOS>ATOM
      1 N1           0.2060    -0.5500     1.7650 n2         1 CZH      -0.309200
      2 C2           1.5150    -0.4920     2.3690 c5         1 CZH       0.234000
      3 C3           2.5070    -0.3450     1.1940 c          1 CZH       0.545300
      4 N4           1.6850    -0.2020     0.0890 n          1 CZH      -0.159200
      5 C5           2.0310    -0.0180    -1.2260 cc         1 CZH      -0.115600
      6 C6           1.0360     0.0550    -2.1370 cd         1 CZH       0.395800
      7 N7          -0.2870    -0.0910    -1.7520 nd         1 CZH      -0.631000
      8 C8          -0.6300    -0.2820    -0.5360 cc         1 CZH       0.448600
      9 C9           0.3750    -0.3540     0.5160 cc         1 CZH      -0.015600
     10 C10          1.6490     0.7280     3.2940 c3         1 CZH       0.002900
     11 C11          0.6540     0.7250     4.4180 ca         1 CZH      -0.119300
     12 C12          0.9770     0.1890     5.6620 ca         1 CZH      -0.063500
     13 C13          0.0640     0.1760     6.7050 ca         1 CZH      -0.196500
     14 C14         -1.2100     0.7050     6.5160 ca         1 CZH       0.146100
     15 C15         -1.5470     1.2500     5.2800 ca         1 CZH      -0.196500
     16 C16         -0.6210     1.2540     4.2480 ca         1 CZH      -0.063500
     17 O17         -2.0700     0.6720     7.5550 oh         1 CZH      -0.494100
     18 O18          3.7060    -0.3190     1.2030 o          1 CZH      -0.534500
     19 C19          1.2580     0.2700    -3.5750 ca         1 CZH      -0.170500
     20 C20          0.2210     0.0580    -4.4830 ca         1 CZH      -0.066000
     21 C21          0.4070     0.2360    -5.8450 ca         1 CZH      -0.199000
     22 C22          1.6460     0.6400    -6.3340 ca         1 CZH       0.149100
     23 C23          2.6900     0.8670    -5.4380 ca         1 CZH      -0.199000
     24 C24          2.4920     0.6860    -4.0830 ca         1 CZH      -0.066000
     25 O25          1.8890     0.8340    -7.6430 oh         1 CZH      -0.492100
     26 C26         -2.0630    -0.4580    -0.1370 c3         1 CZH      -0.078400
     27 C27         -3.0150    -0.3250    -1.2890 ca         1 CZH      -0.069300
     28 C28         -3.2670    -1.4080    -2.1260 ca         1 CZH      -0.112500
     29 C29         -4.1240    -1.2810    -3.2090 ca         1 CZH      -0.129500
     30 C30         -4.7430    -0.0640    -3.4690 ca         1 CZH      -0.127000
     31 C31         -4.5000     1.0210    -2.6380 ca         1 CZH      -0.129500
     32 C32         -3.6390     0.8890    -1.5560 ca         1 CZH      -0.112500
     33 O33          1.8010    -1.6150     3.1430 os         1 CZH      -0.163800
     34 O34          1.7750    -2.7400     2.2910 oh         1 CZH      -0.397000
     35 H5           3.0870     0.0560    -1.4400 h4         1 CZH       0.181000
     36 H101         2.6700     0.7500     3.6810 hc         1 CZH       0.066200
     37 H102         1.5290     1.6220     2.6790 hc         1 CZH       0.066200
     38 H12          1.9660    -0.2190     5.8310 ha         1 CZH       0.132000
     39 H13          0.3380    -0.2410     7.6650 ha         1 CZH       0.138500
     40 H15         -2.5320     1.6750     5.1200 ha         1 CZH       0.138500
     41 H16         -0.9020     1.6820     3.2940 ha         1 CZH       0.132000
     42 H17         -2.9150     1.0600     7.3010 ho         1 CZH       0.425000
     43 H20         -0.7490    -0.2550    -4.1200 ha         1 CZH       0.143000
     44 H21         -0.4190     0.0610    -6.5240 ha         1 CZH       0.141000
     45 H23          3.6540     1.1940    -5.8060 ha         1 CZH       0.141000
     46 H24          3.3210     0.8890    -3.4160 ha         1 CZH       0.143000
     47 H25          1.1010     0.6410    -8.1650 ho         1 CZH       0.428000
     48 H261        -2.1600    -1.4390     0.3390 hc         1 CZH       0.077200
     49 H262        -2.2920     0.2670     0.6490 hc         1 CZH       0.077200
     50 H28         -2.7900    -2.3600    -1.9270 ha         1 CZH       0.128500
     51 H29         -4.3140    -2.1330    -3.8490 ha         1 CZH       0.129500
     52 H30         -5.4150     0.0350    -4.3120 ha         1 CZH       0.129000
     53 H31         -4.9810     1.9710    -2.8290 ha         1 CZH       0.129500
     54 H32         -3.4530     1.7390    -0.9100 ha         1 CZH       0.128500
     55 H34          2.6970    -3.0350     2.3220 ho         1 CZH       0.412000
@<TRIPOS>BOND
     1     1     2 1   
     2     1     9 2   
     3     2     3 1   
     4     2    10 1   
     5     2    33 1   
     6     3     4 1   
     7     3    18 2   
     8     4     5 1   
     9     4     9 1   
    10     5     6 2   
    11     5    35 1   
    12     6     7 1   
    13     6    19 1   
    14     7     8 2   
    15     8     9 1   
    16     8    26 1   
    17    10    11 1   
    18    10    36 1   
    19    10    37 1   
    20    11    12 ar  
    21    11    16 ar  
    22    12    13 ar  
    23    12    38 1   
    24    13    14 ar  
    25    13    39 1   
    26    14    15 ar  
    27    14    17 1   
    28    15    16 ar  
    29    15    40 1   
    30    16    41 1   
    31    17    42 1   
    32    19    20 ar  
    33    19    24 ar  
    34    20    21 ar  
    35    20    43 1   
    36    21    22 ar  
    37    21    44 1   
    38    22    23 ar  
    39    22    25 1   
    40    23    24 ar  
    41    23    45 1   
    42    24    46 1   
    43    25    47 1   
    44    26    27 1   
    45    26    48 1   
    46    26    49 1   
    47    27    28 ar  
    48    27    32 ar  
    49    28    29 ar  
    50    28    50 1   
    51    29    30 ar  
    52    29    51 1   
    53    30    31 ar  
    54    30    52 1   
    55    31    32 ar  
    56    31    53 1   
    57    32    54 1   
    58    33    34 1   
    59    34    55 1   
@<TRIPOS>SUBSTRUCTURE
     1 CZH         1 TEMP              0 ****  ****    0 ROOT
