@<TRIPOS>MOLECULE
CZI
   56    60     1     0     0
SMALL
No Charge or Current Charge


@<TRIPOS>ATOM
      1 I            7.0390    -1.0010     0.4870 i          1 CZI      -0.320000
      2 C14          5.1430     0.0250     0.6990 ca         1 CZI       0.203000
      3 C15          5.0430     1.3870     0.3750 ca         1 CZI      -0.083000
      4 C16          3.8120     2.0540     0.5110 ca         1 CZI      -0.088500
      5 C13          4.0160    -0.6740     1.1600 ca         1 CZI      -0.083000
      6 C12          2.7850    -0.0080     1.2970 ca         1 CZI      -0.088500
      7 C11          2.6750     1.3590     0.9710 ca         1 CZI      -0.060300
      8 C10          1.3370     2.0830     1.1210 c3         1 CZI      -0.008100
      9 C2           0.4410     2.0690    -0.1480 c5         1 CZI       0.250200
     10 O33          1.1660     2.7140    -1.2390 os         1 CZI      -0.192000
     11 O34          0.3370     2.7730    -2.4700 oh         1 CZI      -0.432000
     12 N1           0.0860     0.6490    -0.5100 n2         1 CZI      -0.599900
     13 C9          -1.1990     0.5990    -0.3800 c2         1 CZI       0.468900
     14 N4          -1.8190     1.7890    -0.0050 n          1 CZI      -0.265500
     15 C3          -0.9020     2.8110     0.1410 c          1 CZI       0.516000
     16 O18         -1.1500     3.9920     0.3620 o          1 CZI      -0.485000
     17 C5          -3.2210     1.9360     0.0830 c2         1 CZI      -0.146400
     18 C8          -2.0920    -0.6470    -0.6200 c6         1 CZI       0.177200
     19 C26         -1.7970    -1.7290     0.4580 c3         1 CZI      -0.066100
     20 C27         -2.5800    -3.0220     0.2540 ca         1 CZI      -0.095300
     21 C28         -2.1810    -3.9420    -0.7360 ca         1 CZI      -0.107500
     22 C29         -2.9060    -5.1300    -0.9330 ca         1 CZI      -0.107500
     23 C30         -4.0350    -5.4050    -0.1430 ca         1 CZI      -0.106000
     24 C31         -4.4380    -4.4920     0.8450 ca         1 CZI      -0.107500
     25 C32         -3.7130    -3.3040     1.0430 ca         1 CZI      -0.107500
     26 N7          -3.5580    -0.3290    -0.6100 nu         1 CZI      -0.779200
     27 C6          -4.0610     0.9230    -0.2090 ce         1 CZI       0.111800
     28 C19         -5.5440     1.0380    -0.0980 ca         1 CZI      -0.099800
     29 C20         -6.1240     1.7810     0.9530 ca         1 CZI      -0.057000
     30 C21         -7.5210     1.8900     1.0610 ca         1 CZI      -0.176500
     31 C24         -6.3890     0.4110    -1.0390 ca         1 CZI      -0.057000
     32 C23         -7.7870     0.5230    -0.9290 ca         1 CZI      -0.176500
     33 C22         -8.3520     1.2630     0.1220 ca         1 CZI       0.150100
     34 O25         -9.7040     1.3760     0.2360 oh         1 CZI      -0.529100
     35 H15          5.9180     1.9240     0.0180 ha         1 CZI       0.126000
     36 H16          3.7430     3.1090     0.2560 ha         1 CZI       0.117000
     37 H13          4.0980    -1.7280     1.4100 ha         1 CZI       0.126000
     38 H12          1.9150    -0.5570     1.6520 ha         1 CZI       0.117000
     39 H101         1.5190     3.1230     1.4170 hc         1 CZI       0.069700
     40 H102         0.7800     1.6440     1.9590 hc         1 CZI       0.069700
     41 H34          0.1580     3.7390    -2.5320 ho         1 CZI       0.451000
     42 H5          -3.5670     2.9230     0.3950 h4         1 CZI       0.229000
     43 H8          -1.8120    -1.0640    -1.5980 h1         1 CZI       0.102700
     44 H261        -0.7240    -1.9580     0.4580 hc         1 CZI       0.064200
     45 H262        -2.0070    -1.3160     1.4530 hc         1 CZI       0.064200
     46 H28         -1.3090    -3.7370    -1.3530 ha         1 CZI       0.115500
     47 H29         -2.5930    -5.8370    -1.6990 ha         1 CZI       0.116000
     48 H30         -4.5960    -6.3250    -0.2960 ha         1 CZI       0.115000
     49 H31         -5.3120    -4.7030     1.4570 ha         1 CZI       0.116000
     50 H32         -4.0350    -2.6010     1.8090 ha         1 CZI       0.115500
     51 HN7         -4.2190    -1.1060    -0.6550 hn         1 CZI       0.471000
     52 H20         -5.4930     2.2640     1.6960 ha         1 CZI       0.120500
     53 H21         -7.9590     2.4610     1.8750 ha         1 CZI       0.125000
     54 H24         -5.9650    -0.1550    -1.8660 ha         1 CZI       0.120500
     55 H23         -8.4220     0.0350    -1.6640 ha         1 CZI       0.125000
     56 H25        -10.1210     0.8790    -0.5000 ho         1 CZI       0.468000
@<TRIPOS>BOND
     1     1     2 1   
     2     2     3 ar  
     3     2     5 ar  
     4     3     4 ar  
     5     3    35 1   
     6     4     7 ar  
     7     4    36 1   
     8     5     6 ar  
     9     5    37 1   
    10     6     7 ar  
    11     6    38 1   
    12     7     8 1   
    13     8     9 1   
    14     8    39 1   
    15     8    40 1   
    16     9    10 1   
    17     9    12 1   
    18     9    15 1   
    19    10    11 1   
    20    11    41 1   
    21    12    13 2   
    22    13    14 1   
    23    13    18 1   
    24    14    15 1   
    25    14    17 1   
    26    15    16 2   
    27    17    27 2   
    28    17    42 1   
    29    18    19 1   
    30    18    26 1   
    31    18    43 1   
    32    19    20 1   
    33    19    44 1   
    34    19    45 1   
    35    20    21 ar  
    36    20    25 ar  
    37    21    22 ar  
    38    21    46 1   
    39    22    23 ar  
    40    22    47 1   
    41    23    24 ar  
    42    23    48 1   
    43    24    25 ar  
    44    24    49 1   
    45    25    50 1   
    46    26    27 1   
    47    26    51 1   
    48    27    28 1   
    49    28    29 ar  
    50    28    31 ar  
    51    29    30 ar  
    52    29    52 1   
    53    30    33 ar  
    54    30    53 1   
    55    31    32 ar  
    56    31    54 1   
    57    32    33 ar  
    58    32    55 1   
    59    33    34 1   
    60    34    56 1   
@<TRIPOS>SUBSTRUCTURE
     1 CZI         1 TEMP              0 ****  ****    0 ROOT
