@<TRIPOS>MOLECULE
CZI
   56    60     1     0     0
SMALL
bcc


@<TRIPOS>ATOM
      1 I            6.9620    -0.8700    -0.2350 i          1 CZI      -0.182900
      2 C14          5.1300     0.0540     0.2350 ca         1 CZI       0.065900
      3 C15          5.0380     1.4380     0.2200 ca         1 CZI      -0.101000
      4 C16          3.8250     2.0370     0.5310 ca         1 CZI      -0.106500
      5 C13          4.0320    -0.7300     0.5600 ca         1 CZI      -0.101000
      6 C12          2.8290    -0.1120     0.8680 ca         1 CZI      -0.106500
      7 C11          2.7080     1.2750     0.8590 ca         1 CZI      -0.060300
      8 C10          1.4000     1.9360     1.1850 c3         1 CZI      -0.008100
      9 C2           0.4750     2.0540    -0.0320 c5         1 CZI       0.227000
     10 O33          1.1560     2.8290    -0.9700 os         1 CZI      -0.168800
     11 O34          0.3000     3.0320    -2.0710 oh         1 CZI      -0.393000
     12 N1           0.1170     0.7490    -0.5430 n2         1 CZI      -0.599900
     13 C9          -1.1340     0.6270    -0.3680 c2         1 CZI       0.468900
     14 N4          -1.7840     1.7230     0.1850 n          1 CZI      -0.332500
     15 C3          -0.8610     2.7070     0.3840 c          1 CZI       0.658500
     16 O18         -1.0540     3.8190     0.8100 o          1 CZI      -0.560500
     17 C5          -3.1750     1.7800     0.3360 c2         1 CZI      -0.096400
     18 C8          -1.9640    -0.5870    -0.6090 c6         1 CZI       0.177200
     19 C26         -1.9500    -1.4640     0.6690 c3         1 CZI      -0.066100
     20 C27         -2.7830    -2.6970     0.4860 ca         1 CZI      -0.095300
     21 C28         -2.2340    -3.8450    -0.0830 ca         1 CZI      -0.125500
     22 C29         -3.0150    -4.9710    -0.3050 ca         1 CZI      -0.125500
     23 C30         -4.3620    -4.9630     0.0350 ca         1 CZI      -0.124000
     24 C31         -4.9200    -3.8260     0.6020 ca         1 CZI      -0.125500
     25 C32         -4.1350    -2.7020     0.8250 ca         1 CZI      -0.125500
     26 N7          -3.2930    -0.1620    -1.0080 nu         1 CZI      -0.724000
     27 C6          -3.9140     0.8240    -0.2520 ce         1 CZI       0.111800
     28 C19         -5.3820     0.8100    -0.1780 ca         1 CZI      -0.099800
     29 C20         -6.0530     1.2580     0.9610 ca         1 CZI      -0.075000
     30 C21         -7.4340     1.2530     1.0300 ca         1 CZI      -0.194500
     31 C24         -6.1480     0.3430    -1.2460 ca         1 CZI      -0.075000
     32 C23         -7.5320     0.3290    -1.1860 ca         1 CZI      -0.194500
     33 C22         -8.1860     0.7850    -0.0450 ca         1 CZI       0.150100
     34 O25         -9.5260     0.7900     0.0720 oh         1 CZI      -0.490100
     35 H15          5.8920     2.0540    -0.0280 ha         1 CZI       0.144000
     36 H16          3.7590     3.1180     0.5240 ha         1 CZI       0.135000
     37 H13          4.1000    -1.8090     0.5790 ha         1 CZI       0.144000
     38 H12          1.9740    -0.7250     1.1230 ha         1 CZI       0.135000
     39 H101         1.5660     2.9370     1.5900 hc         1 CZI       0.069700
     40 H102         0.8690     1.3670     1.9520 hc         1 CZI       0.069700
     41 H34          0.1310     3.9850    -2.0220 ho         1 CZI       0.412000
     42 H5          -3.5760     2.6180     0.8810 h4         1 CZI       0.179000
     43 H8          -1.5190    -1.1520    -1.4290 h1         1 CZI       0.102700
     44 H261        -0.9130    -1.7300     0.8870 hc         1 CZI       0.064200
     45 H262        -2.3190    -0.8800     1.5160 hc         1 CZI       0.064200
     46 H28         -1.1830    -3.8600    -0.3500 ha         1 CZI       0.133500
     47 H29         -2.5710    -5.8560    -0.7420 ha         1 CZI       0.134000
     48 H30         -4.9730    -5.8400    -0.1390 ha         1 CZI       0.133000
     49 H31         -5.9680    -3.8120     0.8730 ha         1 CZI       0.134000
     50 H32         -4.5780    -1.8210     1.2760 ha         1 CZI       0.133500
     51 HN7         -3.8880    -0.9440    -1.2380 hn         1 CZI       0.415800
     52 H20         -5.4920     1.6010     1.8200 ha         1 CZI       0.138500
     53 H21         -7.9330     1.5990     1.9270 ha         1 CZI       0.143000
     54 H24         -5.6730     0.0000    -2.1570 ha         1 CZI       0.138500
     55 H23         -8.0980    -0.0340    -2.0360 ha         1 CZI       0.143000
     56 H25         -9.9370     0.4370    -0.7250 ho         1 CZI       0.429000
@<TRIPOS>BOND
     1     1     2 1   
     2     2     3 ar  
     3     2     5 ar  
     4     3     4 ar  
     5     3    35 1   
     6     4     7 ar  
     7     4    36 1   
     8     5     6 ar  
     9     5    37 1   
    10     6     7 ar  
    11     6    38 1   
    12     7     8 1   
    13     8     9 1   
    14     8    39 1   
    15     8    40 1   
    16     9    10 1   
    17     9    12 1   
    18     9    15 1   
    19    10    11 1   
    20    11    41 1   
    21    12    13 2   
    22    13    14 1   
    23    13    18 1   
    24    14    15 1   
    25    14    17 1   
    26    15    16 2   
    27    17    27 2   
    28    17    42 1   
    29    18    19 1   
    30    18    26 1   
    31    18    43 1   
    32    19    20 1   
    33    19    44 1   
    34    19    45 1   
    35    20    21 ar  
    36    20    25 ar  
    37    21    22 ar  
    38    21    46 1   
    39    22    23 ar  
    40    22    47 1   
    41    23    24 ar  
    42    23    48 1   
    43    24    25 ar  
    44    24    49 1   
    45    25    50 1   
    46    26    27 1   
    47    26    51 1   
    48    27    28 1   
    49    28    29 ar  
    50    28    31 ar  
    51    29    30 ar  
    52    29    52 1   
    53    30    33 ar  
    54    30    53 1   
    55    31    32 ar  
    56    31    54 1   
    57    32    33 ar  
    58    32    55 1   
    59    33    34 1   
    60    34    56 1   
@<TRIPOS>SUBSTRUCTURE
     1 CZI         1 TEMP              0 ****  ****    0 ROOT
