@<TRIPOS>MOLECULE
CZJ
   80    85     1     0     0
SMALL
bcc


@<TRIPOS>ATOM
      1 C17          1.6800     1.2110    -0.1760 ca         1 CZJ      -0.230000
      2 C20         -2.0590     1.0230    -0.1410 cc         1 CZJ       0.281900
      3 C22         -3.0190     0.1910    -0.6320 cd         1 CZJ      -0.260600
      4 C24         -5.0770    -0.2600     0.5370 c          1 CZJ       0.673100
      5 C26         -6.9070     1.4630     0.6770 c6         1 CZJ      -0.060067
      6 C28         -9.0560     0.9090     1.8270 c6         1 CZJ      -0.069733
      7 C02          5.8170     1.9770    -0.3940 c6         1 CZJ       0.184800
      8 C03          5.4590     2.4910     1.0040 c3         1 CZJ      -0.100100
      9 C04          7.0210     1.0110    -0.3560 c6         1 CZJ       0.116100
     10 C07          6.6640    -0.3910     0.1650 c6         1 CZJ       0.143100
     11 C12          5.4100    -0.9200    -0.5190 c6         1 CZJ       0.114100
     12 C14          4.3010     0.1220    -0.4230 c6         1 CZJ       0.321900
     13 C16          1.9640     0.0440    -0.8900 ca         1 CZJ       0.199100
     14 C18          0.3710     1.5480     0.0820 ca         1 CZJ      -0.020000
     15 C19         -0.6690     0.7410    -0.3740 ca         1 CZJ      -0.196800
     16 C25         -6.5810    -0.0370     0.5300 c6         1 CZJ      -0.124000
     17 C27         -8.4240     1.6700     0.6620 c6         1 CZJ      -0.059700
     18 C29         -8.7490    -0.5810     1.6810 c6         1 CZJ      -0.059700
     19 C30         -7.2330    -0.7950     1.6930 c6         1 CZJ      -0.060067
     20 C31         -8.9910     1.1550    -0.6630 c6         1 CZJ      -0.069733
     21 C32         -8.6930    -0.3390    -0.8030 c6         1 CZJ      -0.059700
     22 C33         -9.3270    -1.0980     0.3630 c6         1 CZJ      -0.069733
     23 C34         -7.1780    -0.5530    -0.7960 c6         1 CZJ      -0.060067
     24 C36         -2.6670    -0.9950    -1.3610 c          1 CZJ       0.772800
     25 C39         -0.3580    -0.4110    -1.1010 ca         1 CZJ       0.221100
     26 C40          0.9520    -0.7870    -1.3780 ca         1 CZJ      -0.136300
     27 C41          1.2980    -2.0280    -2.1470 c3         1 CZJ      -0.027800
     28 N10          6.5020    -1.1770     3.6020 nt         1 CZJ      -0.667000
     29 N23         -4.3760     0.4630    -0.3910 ns         1 CZJ      -0.493100
     30 O05          7.5220     0.8620    -1.6620 os         1 CZJ      -0.395600
     31 O08          6.4430    -0.3330     1.5660 os         1 CZJ      -0.449900
     32 O11          7.7660    -2.1230     1.9740 o          1 CZJ      -0.582000
     33 O13          5.0500    -2.1250     0.0950 oh         1 CZJ      -0.583800
     34 O15          3.2200    -0.3630    -1.1700 os         1 CZJ      -0.317900
     35 O21         -2.3380     2.1070     0.5550 oh         1 CZJ      -0.469100
     36 O35         -4.5060    -1.0040     1.3090 o          1 CZJ      -0.563100
     37 O37         -1.3390    -1.2220    -1.5590 os         1 CZJ      -0.338200
     38 O38         -3.4400    -1.8040    -1.8120 o          1 CZJ      -0.566500
     39 O42          4.6990     1.3230    -1.0060 os         1 CZJ      -0.426600
     40 H171         2.4680     1.8700     0.1590 ha         1 CZJ       0.154000
     41 H262        -6.4830     1.8430     1.6130 hc         1 CZJ       0.048533
     42 H261        -6.4620     2.0480    -0.1340 hc         1 CZJ       0.048533
     43 H282        -8.6640     1.2840     2.7780 hc         1 CZJ       0.041867
     44 H281       -10.1390     1.0730     1.8440 hc         1 CZJ       0.041867
     45 H013         6.2480     2.8980    -2.3240 hc         1 CZJ       0.049700
     46 H012         5.3010     3.8990    -1.2180 hc         1 CZJ       0.049700
     47 H011         7.0270     3.6780    -0.9470 hc         1 CZJ       0.049700
     48 H033         6.2960     3.0570     1.4150 hc         1 CZJ       0.049700
     49 H031         4.6060     3.1680     0.9370 hc         1 CZJ       0.049700
     50 H032         5.2180     1.7120     1.7230 hc         1 CZJ       0.049700
     51 H041         7.7830     1.4500     0.3040 h1         1 CZJ       0.060700
     52 H062         9.1780    -0.3450    -1.2310 h1         1 CZJ       0.036700
     53 H063         9.1720     0.5110    -2.7770 h1         1 CZJ       0.036700
     54 H061         9.4930     1.3990    -1.2770 h1         1 CZJ       0.036700
     55 H071         7.4970    -1.0690    -0.0400 h1         1 CZJ       0.096700
     56 H121         5.6510    -1.0560    -1.5820 h1         1 CZJ       0.076700
     57 H141         3.9930     0.2510     0.6250 h2         1 CZJ       0.052700
     58 H181         0.1570     2.4520     0.6360 ha         1 CZJ       0.150000
     59 H271        -8.6330     2.7390     0.7620 hc         1 CZJ       0.052367
     60 H291        -9.1880    -1.1320     2.5180 hc         1 CZJ       0.052367
     61 H302        -7.0090    -1.8630     1.6190 hc         1 CZJ       0.048533
     62 H301        -6.8170    -0.4500     2.6440 hc         1 CZJ       0.048533
     63 H311       -10.0710     1.3290    -0.7040 hc         1 CZJ       0.041867
     64 H312        -8.5500     1.7070    -1.5000 hc         1 CZJ       0.041867
     65 H321        -9.0970    -0.7090    -1.7490 hc         1 CZJ       0.052367
     66 H331        -9.1380    -2.1720     0.2630 hc         1 CZJ       0.041867
     67 H332       -10.4140    -0.9670     0.3490 hc         1 CZJ       0.041867
     68 H341        -6.7380    -0.0320    -1.6530 hc         1 CZJ       0.048533
     69 H342        -6.9410    -1.6150    -0.9220 hc         1 CZJ       0.048533
     70 H413         1.8750    -2.7210    -1.5340 hc         1 CZJ       0.050700
     71 H411         0.4140    -2.5550    -2.4950 hc         1 CZJ       0.050700
     72 H412         1.9040    -1.7900    -3.0220 hc         1 CZJ       0.050700
     73 H101         6.7990    -1.8320     4.3030 hn         1 CZJ       0.329500
     74 H102         5.7950    -0.5070     3.8500 hn         1 CZJ       0.329500
     75 H231        -4.8930     0.9420    -1.1140 hn         1 CZJ       0.317500
     76 H131         4.3650    -2.5480    -0.4330 ho         1 CZJ       0.422000
     77 H211        -3.2990     2.2090     0.6340 ho         1 CZJ       0.455000
     78 C01          6.1170     3.1790    -1.2810 c3         1 CZJ      -0.100100
     79 C06          8.9030     0.5930    -1.7260 c3         1 CZJ       0.113700
     80 C09          6.9650    -1.2940     2.3500 c          1 CZJ       0.773100
@<TRIPOS>BOND
     1     1    13 ar  
     2     1    14 ar  
     3     1    40 1   
     4     2     3 2   
     5     2    15 1   
     6     2    35 1   
     7     3    24 1   
     8     3    29 1   
     9     4    16 1   
    10     4    29 1   
    11     4    36 2   
    12     5    16 1   
    13     5    17 1   
    14     5    41 1   
    15     5    42 1   
    16     6    17 1   
    17     6    18 1   
    18     6    43 1   
    19     6    44 1   
    20     7     8 1   
    21     7     9 1   
    22     7    39 1   
    23     7    78 1   
    24     8    48 1   
    25     8    49 1   
    26     8    50 1   
    27     9    10 1   
    28     9    30 1   
    29     9    51 1   
    30    10    11 1   
    31    10    31 1   
    32    10    55 1   
    33    11    12 1   
    34    11    33 1   
    35    11    56 1   
    36    12    34 1   
    37    12    39 1   
    38    12    57 1   
    39    13    26 ar  
    40    13    34 1   
    41    14    15 ar  
    42    14    58 1   
    43    15    25 ar  
    44    16    19 1   
    45    16    23 1   
    46    17    20 1   
    47    17    59 1   
    48    18    19 1   
    49    18    22 1   
    50    18    60 1   
    51    19    61 1   
    52    19    62 1   
    53    20    21 1   
    54    20    63 1   
    55    20    64 1   
    56    21    22 1   
    57    21    23 1   
    58    21    65 1   
    59    22    66 1   
    60    22    67 1   
    61    23    68 1   
    62    23    69 1   
    63    24    37 1   
    64    24    38 2   
    65    25    26 ar  
    66    25    37 1   
    67    26    27 1   
    68    27    70 1   
    69    27    71 1   
    70    27    72 1   
    71    28    73 1   
    72    28    74 1   
    73    28    80 1   
    74    29    75 1   
    75    30    79 1   
    76    31    80 1   
    77    32    80 2   
    78    33    76 1   
    79    35    77 1   
    80    45    78 1   
    81    46    78 1   
    82    47    78 1   
    83    52    79 1   
    84    53    79 1   
    85    54    79 1   
@<TRIPOS>SUBSTRUCTURE
     1 CZJ         1 TEMP              0 ****  ****    0 ROOT
