@<TRIPOS>MOLECULE
CZJ
   80    85     1     0     0
SMALL
No Charge or Current Charge


@<TRIPOS>ATOM
      1 C17          1.7710     0.4480     0.5170 ca         1 CZJ      -0.212000
      2 C20         -2.0140     0.3860     0.3840 cc         1 CZJ       0.281900
      3 C22         -2.9960    -0.3190    -0.2810 cd         1 CZJ      -0.260600
      4 C24         -5.4400    -0.8440     0.0810 c          1 CZJ       0.606100
      5 C26         -6.8110     1.3800     0.0960 c6         1 CZJ      -0.060067
      6 C28         -8.8980     1.5810     1.5270 c6         1 CZJ      -0.069733
      7 C02          5.5710     2.0320    -0.3290 c6         1 CZJ       0.208000
      8 C03          5.2760     2.4450     1.1510 c3         1 CZJ      -0.100100
      9 C04          6.9950     1.3810    -0.5380 c6         1 CZJ       0.139300
     10 C07          7.0590    -0.0730     0.0420 c6         1 CZJ       0.166300
     11 C12          5.8550    -0.9220    -0.4810 c6         1 CZJ       0.137300
     12 C14          4.5230    -0.1760    -0.1560 c6         1 CZJ       0.368300
     13 C16          2.0990    -0.5690    -0.4020 ca         1 CZJ       0.199100
     14 C18          0.4310     0.7730     0.7720 ca         1 CZJ      -0.002000
     15 C19         -0.6100     0.0800     0.1180 ca         1 CZJ      -0.196800
     16 C25         -6.8600    -0.1970     0.1720 c6         1 CZJ      -0.124000
     17 C27         -8.2390     1.9940     0.1820 c6         1 CZJ      -0.059700
     18 C29         -8.9750     0.0320     1.6100 c6         1 CZJ      -0.059700
     19 C30         -7.5380    -0.5600     1.5350 c6         1 CZJ      -0.060067
     20 C31         -9.0990     1.4680    -1.0000 c6         1 CZJ      -0.069733
     21 C32         -9.1770    -0.0820    -0.9300 c6         1 CZJ      -0.059700
     22 C33         -9.8240    -0.5080     0.4210 c6         1 CZJ      -0.069733
     23 C34         -7.7420    -0.6740    -1.0300 c6         1 CZJ      -0.060067
     24 C36         -2.6080    -1.3640    -1.2900 c          1 CZJ       0.697300
     25 C39         -0.2800    -0.9340    -0.7930 ca         1 CZJ       0.221100
     26 C40          1.0670    -1.2650    -1.0660 ca         1 CZJ      -0.136300
     27 C41          1.4090    -2.3760    -2.0660 c3         1 CZJ      -0.027800
     28 N10          7.5730    -0.7540     3.6080 nt         1 CZJ      -0.600000
     29 N23         -4.3490     0.0130    -0.0410 ns         1 CZJ      -0.426100
     30 O05          7.3640     1.3970    -1.9460 os         1 CZJ      -0.442000
     31 O08          7.1410    -0.0550     1.5290 os         1 CZJ      -0.473100
     32 O11          8.4580    -1.9340     1.9000 o          1 CZJ      -0.533000
     33 O13          5.8590    -2.2730     0.0490 oh         1 CZJ      -0.706000
     34 O15          3.4080    -0.9330    -0.6650 os         1 CZJ      -0.341100
     35 O21         -2.2750     1.2980     1.3390 oh         1 CZJ      -0.508100
     36 O35         -5.2980    -2.0580     0.1580 o          1 CZJ      -0.563100
     37 O37         -1.2750    -1.6130    -1.4380 os         1 CZJ      -0.338200
     38 O38         -3.4190    -1.9530    -1.9910 o          1 CZJ      -0.491000
     39 O42          4.5310     1.1290    -0.7780 os         1 CZJ      -0.473000
     40 H171         2.5380     1.0010     1.0480 ha         1 CZJ       0.136000
     41 H262        -6.2000     1.7870     0.9140 hc         1 CZJ       0.048533
     42 H261        -6.3380     1.7060    -0.8420 hc         1 CZJ       0.048533
     43 H282        -8.3180     1.9790     2.3720 hc         1 CZJ       0.041867
     44 H281        -9.9030     2.0180     1.6080 hc         1 CZJ       0.041867
     45 H013         5.4550     3.1010    -2.2600 hc         1 CZJ       0.049700
     46 H012         4.4260     3.7940    -1.0080 hc         1 CZJ       0.049700
     47 H011         6.1760     4.0580    -0.9570 hc         1 CZJ       0.049700
     48 H033         6.0000     3.1920     1.4980 hc         1 CZJ       0.049700
     49 H031         4.2790     2.8920     1.2460 hc         1 CZJ       0.049700
     50 H032         5.3200     1.6110     1.8570 hc         1 CZJ       0.049700
     51 H041         7.7290     2.0000    -0.0000 h1         1 CZJ       0.060700
     52 H062         9.0240     0.1040    -2.0600 h1         1 CZJ       0.036700
     53 H063         8.8970     1.2970    -3.3630 h1         1 CZJ       0.036700
     54 H061         9.4120     1.8150    -1.7440 h1         1 CZJ       0.036700
     55 H071         7.9820    -0.5440    -0.3200 h1         1 CZJ       0.096700
     56 H121         5.9370    -0.9620    -1.5780 h1         1 CZJ       0.076700
     57 H141         4.4270    -0.0870     0.9350 h2         1 CZJ       0.052700
     58 H181         0.2130     1.5650     1.4860 ha         1 CZJ       0.132000
     59 H271        -8.1720     3.0900     0.1270 hc         1 CZJ       0.052367
     60 H291        -9.4440    -0.2610     2.5590 hc         1 CZJ       0.052367
     61 H302        -7.5890    -1.6520     1.6510 hc         1 CZJ       0.048533
     62 H301        -6.9330    -0.1920     2.3750 hc         1 CZJ       0.048533
     63 H311       -10.1080     1.9020    -0.9590 hc         1 CZJ       0.041867
     64 H312        -8.6630     1.7840    -1.9580 hc         1 CZJ       0.041867
     65 H321        -9.7870    -0.4560    -1.7640 hc         1 CZJ       0.052367
     66 H331        -9.9000    -1.6030     0.4760 hc         1 CZJ       0.041867
     67 H332       -10.8520    -0.1240     0.4850 hc         1 CZJ       0.041867
     68 H341        -7.2780    -0.3840    -1.9840 hc         1 CZJ       0.048533
     69 H342        -7.8010    -1.7710    -1.0400 hc         1 CZJ       0.048533
     70 H413         1.5830    -3.3260    -1.5480 hc         1 CZJ       0.050700
     71 H411         0.6120    -2.5390    -2.8010 hc         1 CZJ       0.050700
     72 H412         2.3130    -2.1390    -2.6410 hc         1 CZJ       0.050700
     73 H101         7.9820    -1.3560     4.3050 hn         1 CZJ       0.329500
     74 H102         7.0090     0.0390     3.8690 hn         1 CZJ       0.329500
     75 H231        -4.6040     0.9900     0.0520 hn         1 CZJ       0.317500
     76 H131         5.0200    -2.6960    -0.2510 ho         1 CZJ       0.521000
     77 H211        -3.1870     1.1170     1.6410 ho         1 CZJ       0.494000
     78 C01          5.3980     3.3200    -1.1870 c3         1 CZJ      -0.100100
     79 C06          8.7400     1.1390    -2.2880 c3         1 CZJ       0.136900
     80 C09          7.7820    -1.0100     2.3100 c          1 CZJ       0.657100
@<TRIPOS>BOND
     1     1    13 ar  
     2     1    14 ar  
     3     1    40 1   
     4     2     3 2   
     5     2    15 1   
     6     2    35 1   
     7     3    24 1   
     8     3    29 1   
     9     4    16 1   
    10     4    29 1   
    11     4    36 2   
    12     5    16 1   
    13     5    17 1   
    14     5    41 1   
    15     5    42 1   
    16     6    17 1   
    17     6    18 1   
    18     6    43 1   
    19     6    44 1   
    20     7     8 1   
    21     7     9 1   
    22     7    39 1   
    23     7    78 1   
    24     8    48 1   
    25     8    49 1   
    26     8    50 1   
    27     9    10 1   
    28     9    30 1   
    29     9    51 1   
    30    10    11 1   
    31    10    31 1   
    32    10    55 1   
    33    11    12 1   
    34    11    33 1   
    35    11    56 1   
    36    12    34 1   
    37    12    39 1   
    38    12    57 1   
    39    13    26 ar  
    40    13    34 1   
    41    14    15 ar  
    42    14    58 1   
    43    15    25 ar  
    44    16    19 1   
    45    16    23 1   
    46    17    20 1   
    47    17    59 1   
    48    18    19 1   
    49    18    22 1   
    50    18    60 1   
    51    19    61 1   
    52    19    62 1   
    53    20    21 1   
    54    20    63 1   
    55    20    64 1   
    56    21    22 1   
    57    21    23 1   
    58    21    65 1   
    59    22    66 1   
    60    22    67 1   
    61    23    68 1   
    62    23    69 1   
    63    24    37 1   
    64    24    38 2   
    65    25    26 ar  
    66    25    37 1   
    67    26    27 1   
    68    27    70 1   
    69    27    71 1   
    70    27    72 1   
    71    28    73 1   
    72    28    74 1   
    73    28    80 1   
    74    29    75 1   
    75    30    79 1   
    76    31    80 1   
    77    32    80 2   
    78    33    76 1   
    79    35    77 1   
    80    45    78 1   
    81    46    78 1   
    82    47    78 1   
    83    52    79 1   
    84    53    79 1   
    85    54    79 1   
@<TRIPOS>SUBSTRUCTURE
     1 CZJ         1 TEMP              0 ****  ****    0 ROOT
