@<TRIPOS>MOLECULE
CZK
   60    63     1     0     0
SMALL
abcg2


@<TRIPOS>ATOM
      1 C10         -2.3720     1.7190     0.0720 ca         1 CZK      -0.112500
      2 C13         -1.0290     2.2920    -0.0530 cc         1 CZK       0.316500
      3 C15          3.0820     1.1590    -0.1510 c3         1 CZK       0.157300
      4 C17          5.7730     0.5700     1.1420 c6         1 CZK       0.126300
      5 C20          6.2580    -0.7650    -0.7610 c6         1 CZK       0.126300
      6 C21          0.7740     3.5490     0.0720 cd         1 CZK      -0.175000
      7 C22         -0.5430     3.5130     0.4600 cc         1 CZK      -0.212000
      8 C01         -7.2250     0.6790     0.8610 c3         1 CZK       0.145900
      9 C02         -4.9230     0.5810     0.3220 ca         1 CZK       0.112100
     10 C03         -3.8360    -0.2060    -0.1150 ca         1 CZK       0.116100
     11 O02         -4.1310    -1.4920    -0.3860 os         1 CZK      -0.328100
     12 C04         -3.0990    -2.3870    -0.7640 c5         1 CZK       0.166300
     13 C05         -3.7080    -3.6880    -1.2650 c5         1 CZK      -0.095900
     14 C06         -2.5300    -4.6690    -1.2360 c5         1 CZK      -0.079400
     15 C07         -1.5450    -4.1170    -0.1740 c5         1 CZK      -0.079400
     16 C08         -2.1960    -2.8440     0.3800 c5         1 CZK      -0.095900
     17 C09         -2.5850     0.3680    -0.2360 ca         1 CZK      -0.148000
     18 C11         -3.4450     2.4810     0.5020 ca         1 CZK      -0.096000
     19 C12         -4.7120     1.9160     0.6250 ca         1 CZK      -0.176000
     20 N01         -0.0710     1.6480    -0.7010 nd         1 CZK      -0.522800
     21 N02          1.0060     2.4190    -0.6220 na         1 CZK       0.139800
     22 C14          2.2650     1.9680    -1.1610 c3         1 CZK       0.043600
     23 O03          2.3500     0.0950     0.3940 oh         1 CZK      -0.623000
     24 C16          4.3780     0.7120    -0.8240 c3         1 CZK       0.133800
     25 N03          5.2020    -0.1340     0.0090 n3         1 CZK      -0.704600
     26 C18          6.6030    -0.3810     1.9830 c6         1 CZK       0.153100
     27 O04          7.6220    -0.9970     1.2270 os         1 CZK      -0.449000
     28 C19          7.0740    -1.6860     0.1250 c6         1 CZK       0.153100
     29 H18          3.3120     1.8180     0.6930 h1         1 CZK       0.076700
     30 H23          4.9800     0.9760     1.7730 h1         1 CZK       0.040700
     31 H29          5.8160    -1.3550    -1.5680 h1         1 CZK       0.040700
     32 H28          6.9260    -0.0220    -1.2320 h1         1 CZK       0.040700
     33 H30          1.5460     4.2830     0.2360 h4         1 CZK       0.150000
     34 H31         -1.0710     4.2580     1.0320 ha         1 CZK       0.145000
     35 H01         -8.0660    -0.0110     0.8670 h1         1 CZK       0.038367
     36 H02         -7.0810     1.0660     1.8730 h1         1 CZK       0.038367
     37 H03         -7.4630     1.5140     0.1970 h1         1 CZK       0.038367
     38 H04         -2.4940    -1.9410    -1.5650 h1         1 CZK       0.045700
     39 H05         -4.4910    -4.0050    -0.5710 hc         1 CZK       0.057950
     40 H06         -4.1590    -3.5920    -2.2530 hc         1 CZK       0.057950
     41 H08         -2.8630    -5.6800    -1.0020 hc         1 CZK       0.042950
     42 H07         -2.0470    -4.7150    -2.2120 hc         1 CZK       0.042950
     43 H10         -1.3440    -4.8380     0.6180 hc         1 CZK       0.042950
     44 H09         -0.5860    -3.8810    -0.6360 hc         1 CZK       0.042950
     45 H12         -1.4630    -2.0980     0.6890 hc         1 CZK       0.057950
     46 H11         -2.8200    -3.0710     1.2480 hc         1 CZK       0.057950
     47 H13         -1.7390    -0.2210    -0.5610 ha         1 CZK       0.136000
     48 H14         -3.3170     3.5290     0.7410 ha         1 CZK       0.113000
     49 H15         -5.5280     2.5410     0.9620 ha         1 CZK       0.117000
     50 H16          2.8330     2.8400    -1.4850 h1         1 CZK       0.067700
     51 H17          2.0480     1.3700    -2.0490 h1         1 CZK       0.067700
     52 H19          2.1330    -0.5270    -0.3090 ho         1 CZK       0.447000
     53 H20          4.1220     0.1480    -1.7280 h1         1 CZK       0.034200
     54 H21          4.9210     1.6100    -1.1670 h1         1 CZK       0.034200
     55 H24          7.0830     0.1640     2.7970 h1         1 CZK       0.053200
     56 H25          5.9430    -1.1400     2.4270 h1         1 CZK       0.053200
     57 H26          6.4400    -2.5160     0.4680 h1         1 CZK       0.053200
     58 H27          7.9050    -2.1110    -0.4410 h1         1 CZK       0.053200
     59 O01         -6.1060    -0.0560     0.4110 os         1 CZK      -0.321100
     60 H22          6.3960     1.4230     0.8180 h1         1 CZK       0.040700
@<TRIPOS>BOND
     1     1     2 1   
     2     1    17 ar  
     3     1    18 ar  
     4     2     7 1   
     5     2    20 2   
     6     3    22 1   
     7     3    23 1   
     8     3    24 1   
     9     3    29 1   
    10     4    25 1   
    11     4    26 1   
    12     4    30 1   
    13     4    60 1   
    14     5    25 1   
    15     5    28 1   
    16     5    31 1   
    17     5    32 1   
    18     6     7 2   
    19     6    21 1   
    20     6    33 1   
    21     7    34 1   
    22     8    35 1   
    23     8    36 1   
    24     8    37 1   
    25     8    59 1   
    26     9    10 ar  
    27     9    19 ar  
    28     9    59 1   
    29    10    11 1   
    30    10    17 ar  
    31    11    12 1   
    32    12    13 1   
    33    12    16 1   
    34    12    38 1   
    35    13    14 1   
    36    13    39 1   
    37    13    40 1   
    38    14    15 1   
    39    14    41 1   
    40    14    42 1   
    41    15    16 1   
    42    15    43 1   
    43    15    44 1   
    44    16    45 1   
    45    16    46 1   
    46    17    47 1   
    47    18    19 ar  
    48    18    48 1   
    49    19    49 1   
    50    20    21 1   
    51    21    22 1   
    52    22    50 1   
    53    22    51 1   
    54    23    52 1   
    55    24    25 1   
    56    24    53 1   
    57    24    54 1   
    58    26    27 1   
    59    26    55 1   
    60    26    56 1   
    61    27    28 1   
    62    28    57 1   
    63    28    58 1   
@<TRIPOS>SUBSTRUCTURE
     1 CZK         1 TEMP              0 ****  ****    0 ROOT
