@<TRIPOS>MOLECULE
CZK
   60    63     1     0     0
SMALL
No Charge or Current Charge


@<TRIPOS>ATOM
      1 C10         -2.2630     1.3150     0.0970 ca         1 CZK      -0.112500
      2 C13         -0.8510     1.7480     0.0350 cc         1 CZK       0.316500
      3 C15          3.6480     1.1990    -0.2150 c3         1 CZK       0.157300
      4 C17          6.5100     1.1300     1.0130 c6         1 CZK       0.126300
      5 C20          7.1880    -0.1580    -0.9670 c6         1 CZK       0.126300
      6 C21          1.0230     2.9010     0.4240 cd         1 CZK      -0.175000
      7 C22         -0.2940     2.8240     0.7530 cc         1 CZK      -0.212000
      8 C01         -7.3090     0.6830     1.0140 c3         1 CZK       0.145900
      9 C02         -4.9850     0.4780     0.1890 ca         1 CZK       0.112100
     10 C03         -4.0540    -0.2130    -0.6190 ca         1 CZK       0.116100
     11 O02         -4.4830    -1.2800    -1.3910 os         1 CZK      -0.328100
     12 C04         -3.7770    -2.4880    -1.0000 c5         1 CZK       0.166300
     13 C05         -4.2960    -3.6360    -1.8920 c5         1 CZK      -0.095900
     14 C06         -3.7360    -4.8450    -1.1060 c5         1 CZK      -0.079400
     15 C07         -4.1300    -4.5100     0.3650 c5         1 CZK      -0.079400
     16 C08         -4.2690    -2.9520     0.4040 c5         1 CZK      -0.095900
     17 C09         -2.7120     0.2190    -0.6760 ca         1 CZK      -0.148000
     18 C11         -3.2000     1.9810     0.9190 ca         1 CZK      -0.096000
     19 C12         -4.5450     1.5730     0.9630 ca         1 CZK      -0.176000
     20 N01          0.0450     1.1460    -0.7280 nd         1 CZK      -0.522800
     21 N02          1.2130     1.8540    -0.4790 na         1 CZK       0.139800
     22 C14          2.4700     1.5080    -1.1680 c3         1 CZK       0.043600
     23 O03          3.4040     0.0070     0.5430 oh         1 CZK      -0.623000
     24 C16          4.9860     0.9820    -0.9680 c3         1 CZK       0.133800
     25 N03          6.0270     0.3050    -0.1440 n3         1 CZK      -0.704600
     26 C18          7.5970     0.3830     1.8410 c6         1 CZK       0.153100
     27 O04          8.6900    -0.0250     0.9840 os         1 CZK      -0.449000
     28 C19          8.2590    -0.8820    -0.0990 c6         1 CZK       0.153100
     29 H18          3.7810     2.0520     0.4650 h1         1 CZK       0.076700
     30 H23          5.6780     1.3860     1.6850 h1         1 CZK       0.040700
     31 H29          6.8460    -0.8480    -1.7520 h1         1 CZK       0.040700
     32 H28          7.6620     0.6960    -1.4720 h1         1 CZK       0.040700
     33 H30          1.8090     3.5790     0.7380 h4         1 CZK       0.150000
     34 H31         -0.8210     3.4760     1.4400 ha         1 CZK       0.145000
     35 H01         -8.2760     0.1840     0.8750 h1         1 CZK       0.038367
     36 H02         -7.0470     0.6270     2.0780 h1         1 CZK       0.038367
     37 H03         -7.4280     1.7380     0.7330 h1         1 CZK       0.038367
     38 H04         -2.6860    -2.3770    -1.0680 h1         1 CZK       0.045700
     39 H05         -5.3910    -3.6560    -1.9520 hc         1 CZK       0.057950
     40 H06         -3.9020    -3.5830    -2.9130 hc         1 CZK       0.057950
     41 H08         -4.1590    -5.7980    -1.4440 hc         1 CZK       0.042950
     42 H07         -2.6470    -4.9190    -1.2160 hc         1 CZK       0.042950
     43 H10         -5.0780    -4.9880     0.6390 hc         1 CZK       0.042950
     44 H09         -3.3760    -4.8730     1.0720 hc         1 CZK       0.042950
     45 H12         -3.6730    -2.5070     1.2090 hc         1 CZK       0.057950
     46 H11         -5.3120    -2.6640     0.5790 hc         1 CZK       0.057950
     47 H13         -2.0200    -0.2970    -1.3360 ha         1 CZK       0.136000
     48 H14         -2.9020     2.8280     1.5300 ha         1 CZK       0.113000
     49 H15         -5.2290     2.1220     1.6030 ha         1 CZK       0.117000
     50 H16          2.7430     2.3560    -1.8080 h1         1 CZK       0.067700
     51 H17          2.2940     0.6440    -1.8200 h1         1 CZK       0.067700
     52 H19          4.3080    -0.3860     0.6180 ho         1 CZK       0.447000
     53 H20          4.7750     0.3670    -1.8540 h1         1 CZK       0.034200
     54 H21          5.3540     1.9500    -1.3320 h1         1 CZK       0.034200
     55 H24          7.9840     1.0410     2.6320 h1         1 CZK       0.053200
     56 H25          7.1590    -0.5060     2.3190 h1         1 CZK       0.053200
     57 H26          7.8410    -1.8110     0.3160 h1         1 CZK       0.053200
     58 H27          9.1280    -1.1450    -0.7190 h1         1 CZK       0.053200
     59 O01         -6.3020     0.0500     0.2060 os         1 CZK      -0.321100
     60 H22          6.9350     2.0790     0.6520 h1         1 CZK       0.040700
@<TRIPOS>BOND
     1     1     2 1   
     2     1    17 ar  
     3     1    18 ar  
     4     2     7 1   
     5     2    20 2   
     6     3    22 1   
     7     3    23 1   
     8     3    24 1   
     9     3    29 1   
    10     4    25 1   
    11     4    26 1   
    12     4    30 1   
    13     4    60 1   
    14     5    25 1   
    15     5    28 1   
    16     5    31 1   
    17     5    32 1   
    18     6     7 2   
    19     6    21 1   
    20     6    33 1   
    21     7    34 1   
    22     8    35 1   
    23     8    36 1   
    24     8    37 1   
    25     8    59 1   
    26     9    10 ar  
    27     9    19 ar  
    28     9    59 1   
    29    10    11 1   
    30    10    17 ar  
    31    11    12 1   
    32    12    13 1   
    33    12    16 1   
    34    12    38 1   
    35    13    14 1   
    36    13    39 1   
    37    13    40 1   
    38    14    15 1   
    39    14    41 1   
    40    14    42 1   
    41    15    16 1   
    42    15    43 1   
    43    15    44 1   
    44    16    45 1   
    45    16    46 1   
    46    17    47 1   
    47    18    19 ar  
    48    18    48 1   
    49    19    49 1   
    50    20    21 1   
    51    21    22 1   
    52    22    50 1   
    53    22    51 1   
    54    23    52 1   
    55    24    25 1   
    56    24    53 1   
    57    24    54 1   
    58    26    27 1   
    59    26    55 1   
    60    26    56 1   
    61    27    28 1   
    62    28    57 1   
    63    28    58 1   
@<TRIPOS>SUBSTRUCTURE
     1 CZK         1 TEMP              0 ****  ****    0 ROOT
