@<TRIPOS>MOLECULE
CZM
   46    48     1     0     0
SMALL
abcg2


@<TRIPOS>ATOM
      1 OA           1.7230     1.0560     1.3050 oh         1 CZM      -0.541100
      2 CA2          2.7360     1.2110     0.4540 ca         1 CZM       0.220100
      3 CA3          3.4540     2.4150     0.4950 ca         1 CZM      -0.135800
      4 CA4          4.5130     2.5770    -0.3850 ca         1 CZM      -0.047000
      5 CA5          4.8810     1.5880    -1.2970 ca         1 CZM      -0.168500
      6 CA6          4.1700     0.4090    -1.3310 ca         1 CZM      -0.040000
      7 CA1          3.0910     0.2020    -0.4640 ca         1 CZM      -0.292900
      8 CA           2.3580    -1.0450    -0.5310 ce         1 CZM       0.539300
      9 NA           1.3360    -1.2660     0.2050 nf         1 CZM      -0.636100
     10 CC1          0.6830    -2.4960     0.1830 ca         1 CZM       0.155900
     11 CC6          1.3810    -3.7030     0.2100 ca         1 CZM      -0.129500
     12 CC5          0.7030    -4.9120     0.2360 ca         1 CZM      -0.101500
     13 CC4         -0.6850    -4.9260     0.2430 ca         1 CZM      -0.101500
     14 CC3         -1.3910    -3.7340     0.2160 ca         1 CZM      -0.129500
     15 CC2         -0.7230    -2.5100     0.1740 ca         1 CZM       0.155900
     16 NB          -1.3840    -1.2840     0.1440 ne         1 CZM      -0.636100
     17 CB          -2.5040    -1.1450    -0.4600 cf         1 CZM       0.539300
     18 CB1         -3.2180     0.1140    -0.4600 ca         1 CZM      -0.292900
     19 CB6         -4.4520     0.2010    -1.1140 ca         1 CZM      -0.040000
     20 CB5         -5.1520     1.3870    -1.1360 ca         1 CZM      -0.168500
     21 CB4         -4.6110     2.5070    -0.5040 ca         1 CZM      -0.047000
     22 CB3         -3.3900     2.4690     0.1510 ca         1 CZM      -0.135800
     23 CB2         -2.6870     1.2550     0.1750 ca         1 CZM       0.220100
     24 OB          -1.5140     1.2230     0.8020 oh         1 CZM      -0.541100
     25 CB7         -2.8100     3.6830     0.8120 c3         1 CZM      -0.031800
     26 CA7          3.0660     3.4840     1.4720 c3         1 CZM      -0.031800
     27 HOA          1.3200     0.1660     1.1350 ho         1 CZM       0.525000
     28 HA4          5.0710     3.5060    -0.3580 ha         1 CZM       0.112000
     29 HA5          5.7140     1.7470    -1.9670 ha         1 CZM       0.117000
     30 HA6          4.4360    -0.3750    -2.0310 ha         1 CZM       0.108000
     31 HA           2.7130    -1.7840    -1.2560 h4         1 CZM      -0.020700
     32 HC6          2.4630    -3.6910     0.2430 ha         1 CZM       0.118500
     33 HC5          1.2610    -5.8380     0.2720 ha         1 CZM       0.118000
     34 HC4         -1.2220    -5.8650     0.2870 ha         1 CZM       0.118000
     35 HC3         -2.4730    -3.7540     0.2530 ha         1 CZM       0.118500
     36 HB          -2.9630    -1.9650    -1.0190 h4         1 CZM      -0.020700
     37 HB6         -4.8500    -0.6800    -1.6030 ha         1 CZM       0.108000
     38 HB5         -6.1060     1.4550    -1.6410 ha         1 CZM       0.117000
     39 HB4         -5.1580     3.4420    -0.5270 ha         1 CZM       0.112000
     40 HOB         -1.1540     0.3010     0.7250 ho         1 CZM       0.525000
     41 HB71        -2.6180     3.5150     1.8730 hc         1 CZM       0.043533
     42 HB72        -1.8600     3.9720     0.3580 hc         1 CZM       0.043533
     43 HB73        -3.4900     4.5290     0.7270 hc         1 CZM       0.043533
     44 HA71         2.0490     3.8400     1.2990 hc         1 CZM       0.043533
     45 HA72         3.1070     3.1240     2.5010 hc         1 CZM       0.043533
     46 HA73         3.7350     4.3390     1.3930 hc         1 CZM       0.043533
@<TRIPOS>BOND
     1     1     2 1   
     2     1    27 1   
     3     2     3 ar  
     4     2     7 ar  
     5     3     4 ar  
     6     3    26 1   
     7     4     5 ar  
     8     4    28 1   
     9     5     6 ar  
    10     5    29 1   
    11     6     7 ar  
    12     6    30 1   
    13     7     8 1   
    14     8     9 2   
    15     8    31 1   
    16     9    10 1   
    17    10    11 ar  
    18    10    15 ar  
    19    11    12 ar  
    20    11    32 1   
    21    12    13 ar  
    22    12    33 1   
    23    13    14 ar  
    24    13    34 1   
    25    14    15 ar  
    26    14    35 1   
    27    15    16 1   
    28    16    17 2   
    29    17    18 1   
    30    17    36 1   
    31    18    19 ar  
    32    18    23 ar  
    33    19    20 ar  
    34    19    37 1   
    35    20    21 ar  
    36    20    38 1   
    37    21    22 ar  
    38    21    39 1   
    39    22    23 ar  
    40    22    25 1   
    41    23    24 1   
    42    24    40 1   
    43    25    41 1   
    44    25    42 1   
    45    25    43 1   
    46    26    44 1   
    47    26    45 1   
    48    26    46 1   
@<TRIPOS>SUBSTRUCTURE
     1 CZM         1 TEMP              0 ****  ****    0 ROOT
