@<TRIPOS>MOLECULE
CZM
   46    48     1     0     0
SMALL
No Charge or Current Charge


@<TRIPOS>ATOM
      1 OA           1.9330     0.7050     1.8430 oh         1 CZM      -0.541100
      2 CA2          1.8570     1.3160     0.6280 ca         1 CZM       0.220100
      3 CA3          2.1440     2.6960     0.5240 ca         1 CZM      -0.135800
      4 CA4          2.0590     3.3270    -0.7310 ca         1 CZM      -0.047000
      5 CA5          1.6960     2.5890    -1.8670 ca         1 CZM      -0.168500
      6 CA6          1.4160     1.2190    -1.7610 ca         1 CZM      -0.040000
      7 CA1          1.4990     0.5660    -0.5150 ca         1 CZM      -0.292900
      8 CA           1.1530    -0.8870    -0.4650 ce         1 CZM       0.539300
      9 NA           1.0440    -1.5440     0.6640 nf         1 CZM      -0.636100
     10 CC1          0.4640    -2.8400     0.7320 ca         1 CZM       0.155900
     11 CC6          1.3180    -3.9530     0.8220 ca         1 CZM      -0.129500
     12 CC5          0.7870    -5.2520     0.8910 ca         1 CZM      -0.101500
     13 CC4         -0.6040    -5.4450     0.8710 ca         1 CZM      -0.101500
     14 CC3         -1.4660    -4.3380     0.7830 ca         1 CZM      -0.129500
     15 CC2         -0.9460    -3.0330     0.7110 ca         1 CZM       0.155900
     16 NB          -1.8450    -1.9470     0.6190 ne         1 CZM      -0.636100
     17 CB          -2.1480    -1.4280    -0.5390 cf         1 CZM       0.539300
     18 CB1         -2.0610     0.0260    -0.7990 ca         1 CZM      -0.292900
     19 CB6         -2.1610     0.4670    -2.1350 ca         1 CZM      -0.040000
     20 CB5         -2.0450     1.8290    -2.4460 ca         1 CZM      -0.168500
     21 CB4         -1.8200     2.7710    -1.4320 ca         1 CZM      -0.047000
     22 CB3         -1.7090     2.3540    -0.0930 ca         1 CZM      -0.135800
     23 CB2         -1.8300     0.9820     0.2200 ca         1 CZM       0.220100
     24 OB          -1.7220     0.5780     1.5150 oh         1 CZM      -0.541100
     25 CB7         -1.4520     3.3920     0.9970 c3         1 CZM      -0.031800
     26 CA7          2.5380     3.5120     1.7520 c3         1 CZM      -0.031800
     27 HOA          1.6240    -0.2250     1.6860 ho         1 CZM       0.525000
     28 HA4          2.2710     4.3890    -0.8280 ha         1 CZM       0.112000
     29 HA5          1.6260     3.0830    -2.8340 ha         1 CZM       0.117000
     30 HA6          1.1260     0.6660    -2.6530 ha         1 CZM       0.108000
     31 HA           0.8970    -1.3740    -1.4090 h4         1 CZM      -0.020700
     32 HC6          2.3960    -3.8080     0.8390 ha         1 CZM       0.118500
     33 HC5          1.4540    -6.1090     0.9600 ha         1 CZM       0.118000
     34 HC4         -1.0140    -6.4510     0.9260 ha         1 CZM       0.118000
     35 HC3         -2.5420    -4.4920     0.7690 ha         1 CZM       0.118500
     36 HB          -2.2480    -2.0670    -1.4230 h4         1 CZM      -0.020700
     37 HB6         -2.3260    -0.2480    -2.9390 ha         1 CZM       0.108000
     38 HB5         -2.1240     2.1570    -3.4810 ha         1 CZM       0.117000
     39 HB4         -1.7270     3.8240    -1.6900 ha         1 CZM       0.112000
     40 HOB         -1.7270    -0.4140     1.4780 ho         1 CZM       0.525000
     41 HB71        -2.3450     3.5370     1.6160 hc         1 CZM       0.043533
     42 HB72        -0.6340     3.0810     1.6560 hc         1 CZM       0.043533
     43 HB73        -1.1770     4.3660     0.5750 hc         1 CZM       0.043533
     44 HA71         1.7670     3.4520     2.5300 hc         1 CZM       0.043533
     45 HA72         3.4770     3.1450     2.1820 hc         1 CZM       0.043533
     46 HA73         2.6780     4.5720     1.5110 hc         1 CZM       0.043533
@<TRIPOS>BOND
     1     1     2 1   
     2     1    27 1   
     3     2     3 ar  
     4     2     7 ar  
     5     3     4 ar  
     6     3    26 1   
     7     4     5 ar  
     8     4    28 1   
     9     5     6 ar  
    10     5    29 1   
    11     6     7 ar  
    12     6    30 1   
    13     7     8 1   
    14     8     9 2   
    15     8    31 1   
    16     9    10 1   
    17    10    11 ar  
    18    10    15 ar  
    19    11    12 ar  
    20    11    32 1   
    21    12    13 ar  
    22    12    33 1   
    23    13    14 ar  
    24    13    34 1   
    25    14    15 ar  
    26    14    35 1   
    27    15    16 1   
    28    16    17 2   
    29    17    18 1   
    30    17    36 1   
    31    18    19 ar  
    32    18    23 ar  
    33    19    20 ar  
    34    19    37 1   
    35    20    21 ar  
    36    20    38 1   
    37    21    22 ar  
    38    21    39 1   
    39    22    23 ar  
    40    22    25 1   
    41    23    24 1   
    42    24    40 1   
    43    25    41 1   
    44    25    42 1   
    45    25    43 1   
    46    26    44 1   
    47    26    45 1   
    48    26    46 1   
@<TRIPOS>SUBSTRUCTURE
     1 CZM         1 TEMP              0 ****  ****    0 ROOT
