@<TRIPOS>MOLECULE
CZN
   62    67     1     0     0
SMALL
abcg2


@<TRIPOS>ATOM
      1 O21         -0.7050     2.6750    -2.1940 o          1 CZN      -0.469000
      2 C3          -0.4160     1.7570    -1.4680 c          1 CZN       0.531000
      3 N4          -1.2700     0.9620    -0.7600 n          1 CZN      -0.269500
      4 C5          -2.6650     1.0480    -0.6480 c2         1 CZN      -0.145400
      5 C9          -0.5170     0.0180    -0.0750 c2         1 CZN       0.474900
      6 C8          -1.2790    -0.9990     0.7130 c6         1 CZN       0.199200
      7 N7          -2.4640    -0.3500     1.2290 nu         1 CZN      -0.831200
      8 C6          -3.2480     0.4000     0.3780 ce         1 CZN       0.126800
      9 C22         -4.6940     0.4650     0.6250 ca         1 CZN      -0.097800
     10 C23         -5.4060     1.6480     0.4120 ca         1 CZN      -0.056500
     11 C24         -6.7710     1.7120     0.6160 ca         1 CZN      -0.175000
     12 C25         -7.4640     0.5840     1.0570 ca         1 CZN       0.151100
     13 C26         -6.7660    -0.5990     1.2860 ca         1 CZN      -0.175000
     14 C27         -5.3990    -0.6510     1.0720 ca         1 CZN      -0.056500
     15 O28         -8.7900     0.6960     1.2470 oh         1 CZN      -0.528100
     16 C29         -1.6130    -2.2400    -0.1460 c3         1 CZN      -0.058100
     17 C30         -0.4130    -2.8630    -0.7970 ca         1 CZN      -0.084300
     18 C31          0.5940    -3.4490    -0.0330 ca         1 CZN      -0.102500
     19 C32          1.7230    -3.9840    -0.6360 ca         1 CZN      -0.110500
     20 C33          1.8630    -3.9450    -2.0180 ca         1 CZN      -0.103000
     21 C34          0.8600    -3.3760    -2.7920 ca         1 CZN      -0.110500
     22 C35         -0.2690    -2.8380    -2.1820 ca         1 CZN      -0.102500
     23 N1           0.7420     0.0980    -0.2200 n2         1 CZN      -0.628900
     24 C2           0.9840     1.2360    -1.0780 c5         1 CZN       0.238200
     25 O36          1.7360     0.8930    -2.2050 os         1 CZN      -0.181000
     26 O37          0.9850    -0.0030    -2.9850 oh         1 CZN      -0.446000
     27 C10          1.7680     2.3310    -0.3450 c3         1 CZN      -0.004100
     28 C11          3.1400     1.8800     0.0670 ca         1 CZN      -0.075300
     29 C12          3.3480     1.2520     1.2680 ca         1 CZN      -0.071000
     30 C13          4.6310     0.8020     1.6530 ca         1 CZN      -0.039000
     31 C14          4.8550     0.1490     2.8890 ca         1 CZN      -0.095000
     32 C18          5.7270     1.0050     0.7740 ca         1 CZN      -0.031000
     33 C19          5.4960     1.6620    -0.4560 ca         1 CZN      -0.105000
     34 C20          4.2410     2.0830    -0.7990 ca         1 CZN      -0.086000
     35 C17          7.0100     0.5500     1.1580 ca         1 CZN      -0.099000
     36 C16          7.1960    -0.0810     2.3580 ca         1 CZN      -0.108000
     37 C15          6.1070    -0.2830     3.2320 ca         1 CZN      -0.113000
     38 H5          -3.1910     1.6090    -1.4020 h4         1 CZN       0.231000
     39 H8          -0.6590    -1.3030     1.5560 h1         1 CZN       0.090700
     40 HN7         -2.9170    -0.8110     2.0010 hn         1 CZN       0.484000
     41 H23         -4.8810     2.5400     0.0950 ha         1 CZN       0.116500
     42 H24         -7.3040     2.6390     0.4480 ha         1 CZN       0.125000
     43 H26         -7.2880    -1.4860     1.6260 ha         1 CZN       0.125000
     44 H27         -4.8880    -1.5920     1.2380 ha         1 CZN       0.116500
     45 H28         -9.1610    -0.1390     1.5540 ho         1 CZN       0.468000
     46 H291        -2.1030    -2.9560     0.5200 hc         1 CZN       0.057700
     47 H292        -2.3490    -1.9670    -0.9060 hc         1 CZN       0.057700
     48 H31          0.4990    -3.4860     1.0460 ha         1 CZN       0.113000
     49 H32          2.4970    -4.4330    -0.0270 ha         1 CZN       0.117000
     50 H33          2.7440    -4.3610    -2.4880 ha         1 CZN       0.116000
     51 H34          0.9520    -3.3530    -3.8700 ha         1 CZN       0.117000
     52 H35         -1.0500    -2.3970    -2.7900 ha         1 CZN       0.113000
     53 H37          1.2100    -0.8720    -2.6120 ho         1 CZN       0.458000
     54 H101         1.8270     3.2060    -0.9960 hc         1 CZN       0.070700
     55 H102         1.1830     2.6250     0.5290 hc         1 CZN       0.070700
     56 H12          2.5170     1.0930     1.9450 ha         1 CZN       0.114000
     57 H14          4.0190    -0.0060     3.5600 ha         1 CZN       0.111000
     58 H19          6.3280     1.8270    -1.1300 ha         1 CZN       0.113000
     59 H20          4.0860     2.5910    -1.7430 ha         1 CZN       0.119000
     60 H17          7.8460     0.7060     0.4870 ha         1 CZN       0.112000
     61 H16          8.1810    -0.4260     2.6440 ha         1 CZN       0.111000
     62 H15          6.2680    -0.7840     4.1780 ha         1 CZN       0.110000
@<TRIPOS>BOND
     1     1     2 2   
     2     2     3 1   
     3     2    24 1   
     4     3     4 1   
     5     3     5 1   
     6     4     8 2   
     7     4    38 1   
     8     5     6 1   
     9     5    23 2   
    10     6     7 1   
    11     6    16 1   
    12     6    39 1   
    13     7     8 1   
    14     7    40 1   
    15     8     9 1   
    16     9    10 ar  
    17     9    14 ar  
    18    10    11 ar  
    19    10    41 1   
    20    11    12 ar  
    21    11    42 1   
    22    12    13 ar  
    23    12    15 1   
    24    13    14 ar  
    25    13    43 1   
    26    14    44 1   
    27    15    45 1   
    28    16    17 1   
    29    16    46 1   
    30    16    47 1   
    31    17    18 ar  
    32    17    22 ar  
    33    18    19 ar  
    34    18    48 1   
    35    19    20 ar  
    36    19    49 1   
    37    20    21 ar  
    38    20    50 1   
    39    21    22 ar  
    40    21    51 1   
    41    22    52 1   
    42    23    24 1   
    43    24    25 1   
    44    24    27 1   
    45    25    26 1   
    46    26    53 1   
    47    27    28 1   
    48    27    54 1   
    49    27    55 1   
    50    28    29 ar  
    51    28    34 ar  
    52    29    30 ar  
    53    29    56 1   
    54    30    31 ar  
    55    30    32 ar  
    56    31    37 ar  
    57    31    57 1   
    58    32    33 ar  
    59    32    35 ar  
    60    33    34 ar  
    61    33    58 1   
    62    34    59 1   
    63    35    36 ar  
    64    35    60 1   
    65    36    37 ar  
    66    36    61 1   
    67    37    62 1   
@<TRIPOS>SUBSTRUCTURE
     1 CZN         1 TEMP              0 ****  ****    0 ROOT
