@<TRIPOS>MOLECULE
CZN
   62    67     1     0     0
SMALL
No Charge or Current Charge


@<TRIPOS>ATOM
      1 O21         -0.9310     2.8900    -2.0320 o          1 CZN      -0.469000
      2 C3          -0.5670     1.9150    -1.3810 c          1 CZN       0.531000
      3 N4          -1.3760     1.0310    -0.6960 n          1 CZN      -0.269500
      4 C5          -2.7620     1.1990    -0.4730 c2         1 CZN      -0.145400
      5 C9          -0.6360    -0.0050    -0.1300 c2         1 CZN       0.474900
      6 C8          -1.4130    -1.1180     0.6290 c6         1 CZN       0.199200
      7 N7          -2.8080    -0.6940     0.9870 nu         1 CZN      -0.831200
      8 C6          -3.4530     0.3850     0.3510 ce         1 CZN       0.126800
      9 C22         -4.9150     0.5380     0.6010 ca         1 CZN      -0.097800
     10 C23         -5.4770     1.8230     0.7530 ca         1 CZN      -0.056500
     11 C24         -6.8550     1.9730     0.9860 ca         1 CZN      -0.175000
     12 C25         -7.6830     0.8450     1.0670 ca         1 CZN       0.151100
     13 C26         -7.1360    -0.4380     0.9140 ca         1 CZN      -0.175000
     14 C27         -5.7570    -0.5920     0.6820 ca         1 CZN      -0.056500
     15 O28         -9.0180     1.0030     1.2920 oh         1 CZN      -0.528100
     16 C29         -1.5000    -2.4140    -0.2320 c3         1 CZN      -0.058100
     17 C30         -0.1540    -2.9780    -0.6820 ca         1 CZN      -0.084300
     18 C31          0.8300    -3.3250     0.2660 ca         1 CZN      -0.102500
     19 C32          2.0750    -3.8240    -0.1540 ca         1 CZN      -0.110500
     20 C33          2.3440    -3.9850    -1.5230 ca         1 CZN      -0.103000
     21 C34          1.3640    -3.6520    -2.4730 ca         1 CZN      -0.110500
     22 C35          0.1190    -3.1520    -2.0540 ca         1 CZN      -0.102500
     23 N1           0.6460     0.0660    -0.2950 n2         1 CZN      -0.628900
     24 C2           0.8510     1.3310    -1.0910 c5         1 CZN       0.238200
     25 O36          1.5470     1.0350    -2.3340 os         1 CZN      -0.181000
     26 O37          0.9030    -0.1020    -3.0190 oh         1 CZN      -0.446000
     27 C10          1.6970     2.3490    -0.2770 c3         1 CZN      -0.004100
     28 C11          3.1220     1.8880     0.0350 ca         1 CZN      -0.075300
     29 C12          3.3790     1.0910     1.1680 ca         1 CZN      -0.071000
     30 C13          4.6880     0.6600     1.4540 ca         1 CZN      -0.039000
     31 C14          4.9410    -0.1420     2.5830 ca         1 CZN      -0.095000
     32 C18          5.7530     1.0330     0.6050 ca         1 CZN      -0.031000
     33 C19          5.4980     1.8320    -0.5240 ca         1 CZN      -0.105000
     34 C20          4.1890     2.2570    -0.8070 ca         1 CZN      -0.086000
     35 C17          7.0620     0.6020     0.8910 ca         1 CZN      -0.099000
     36 C16          7.3100    -0.1990     2.0200 ca         1 CZN      -0.108000
     37 C15          6.2500    -0.5710     2.8650 ca         1 CZN      -0.113000
     38 H5          -3.2210     2.0340    -1.0050 h4         1 CZN       0.231000
     39 H8          -0.8490    -1.3500     1.5450 h1         1 CZN       0.090700
     40 HN7         -3.3510    -1.2560     1.6470 hn         1 CZN       0.484000
     41 H23         -4.8450     2.7070     0.7020 ha         1 CZN       0.116500
     42 H24         -7.2800     2.9670     1.1060 ha         1 CZN       0.125000
     43 H26         -7.7700    -1.3190     0.9710 ha         1 CZN       0.125000
     44 H27         -5.3480    -1.5910     0.5510 ha         1 CZN       0.116500
     45 H28         -9.4350     0.1160     1.3180 ho         1 CZN       0.468000
     46 H291        -2.0300    -3.1890     0.3360 hc         1 CZN       0.057700
     47 H292        -2.1290    -2.2140    -1.1080 hc         1 CZN       0.057700
     48 H31          0.6340    -3.2060     1.3290 ha         1 CZN       0.113000
     49 H32          2.8320    -4.0850     0.5830 ha         1 CZN       0.117000
     50 H33          3.3080    -4.3720    -1.8470 ha         1 CZN       0.116000
     51 H34          1.5690    -3.7810    -3.5330 ha         1 CZN       0.117000
     52 H35         -0.6320    -2.8980    -2.7990 ha         1 CZN       0.113000
     53 H37          1.0770    -0.8110    -2.3550 ho         1 CZN       0.458000
     54 H101         1.7330     3.2990    -0.8230 hc         1 CZN       0.070700
     55 H102         1.1770     2.5790     0.6610 hc         1 CZN       0.070700
     56 H12          2.5590     0.8000     1.8200 ha         1 CZN       0.114000
     57 H14          4.1260    -0.4350     3.2420 ha         1 CZN       0.111000
     58 H19          6.3120     2.1230    -1.1840 ha         1 CZN       0.113000
     59 H20          4.0040     2.8710    -1.6860 ha         1 CZN       0.119000
     60 H17          7.8870     0.8850     0.2420 ha         1 CZN       0.112000
     61 H16          8.3220    -0.5310     2.2390 ha         1 CZN       0.111000
     62 H15          6.4430    -1.1910     3.7380 ha         1 CZN       0.110000
@<TRIPOS>BOND
     1     1     2 2   
     2     2     3 1   
     3     2    24 1   
     4     3     4 1   
     5     3     5 1   
     6     4     8 2   
     7     4    38 1   
     8     5     6 1   
     9     5    23 2   
    10     6     7 1   
    11     6    16 1   
    12     6    39 1   
    13     7     8 1   
    14     7    40 1   
    15     8     9 1   
    16     9    10 ar  
    17     9    14 ar  
    18    10    11 ar  
    19    10    41 1   
    20    11    12 ar  
    21    11    42 1   
    22    12    13 ar  
    23    12    15 1   
    24    13    14 ar  
    25    13    43 1   
    26    14    44 1   
    27    15    45 1   
    28    16    17 1   
    29    16    46 1   
    30    16    47 1   
    31    17    18 ar  
    32    17    22 ar  
    33    18    19 ar  
    34    18    48 1   
    35    19    20 ar  
    36    19    49 1   
    37    20    21 ar  
    38    20    50 1   
    39    21    22 ar  
    40    21    51 1   
    41    22    52 1   
    42    23    24 1   
    43    24    25 1   
    44    24    27 1   
    45    25    26 1   
    46    26    53 1   
    47    27    28 1   
    48    27    54 1   
    49    27    55 1   
    50    28    29 ar  
    51    28    34 ar  
    52    29    30 ar  
    53    29    56 1   
    54    30    31 ar  
    55    30    32 ar  
    56    31    37 ar  
    57    31    57 1   
    58    32    33 ar  
    59    32    35 ar  
    60    33    34 ar  
    61    33    58 1   
    62    34    59 1   
    63    35    36 ar  
    64    35    60 1   
    65    36    37 ar  
    66    36    61 1   
    67    37    62 1   
@<TRIPOS>SUBSTRUCTURE
     1 CZN         1 TEMP              0 ****  ****    0 ROOT
