@<TRIPOS>MOLECULE
CZO
   44    45     1     0     0
SMALL
No Charge or Current Charge


@<TRIPOS>ATOM
      1 N1           1.4630    -2.1980     1.7940 n8         1 CZO      -0.995200
      2 CA1          1.7220    -1.9450     0.3330 c3         1 CZO       0.185500
      3 CB1          1.2020    -3.1610    -0.5220 c3         1 CZO       0.182300
      4 CG1          2.0930    -4.4140    -0.3690 c3         1 CZO      -0.121100
      5 OG1         -0.1370    -3.5320    -0.1380 oh         1 CZO      -0.657000
      6 C1           1.1730    -0.5100    -0.1300 c5         1 CZO       0.561600
      7 N2          -0.2160    -0.2600     0.2330 n7         1 CZO      -0.937400
      8 N3           1.8460     0.6470     0.4850 n          1 CZO      -0.417800
      9 C2           1.0170     1.7590     0.6490 c          1 CZO       0.559000
     10 O2           1.3480     2.8570     1.0870 o          1 CZO      -0.553000
     11 CA2         -0.3610     1.2270     0.2130 c5         1 CZO       0.099500
     12 CA3          3.3200     0.7450     0.7360 c3         1 CZO      -0.052000
     13 C3           4.2210     0.7310    -0.5280 c          1 CZO       0.712000
     14 O3           3.7760     0.2230    -1.5500 o          1 CZO      -0.708500
     15 CB2         -1.5170     1.7540     1.0980 c3         1 CZO      -0.013100
     16 CG2         -2.9010     1.3500     0.5980 ca         1 CZO      -0.101300
     17 CD1         -3.5430     0.2090     1.1200 ca         1 CZO      -0.064500
     18 CD2         -3.5480     2.1150    -0.3920 ca         1 CZO      -0.064500
     19 CE1         -4.8190    -0.1600     0.6580 ca         1 CZO      -0.179500
     20 CE2         -4.8240     1.7440    -0.8520 ca         1 CZO      -0.179500
     21 CZ          -5.4580     0.6090    -0.3270 ca         1 CZO       0.120100
     22 OH          -6.6940     0.2560    -0.7780 oh         1 CZO      -0.544100
     23 O            1.2400    -0.3760    -1.5120 oh         1 CZO      -0.761000
     24 OXT          5.3220     1.2560    -0.4560 o          1 CZO      -0.708500
     25 HN1          0.9900    -1.3530     2.1360 hn         1 CZO       0.404000
     26 HN1A         0.6950    -2.8800     1.8030 hn         1 CZO       0.404000
     27 HA1          2.8110    -1.9080     0.1970 h1         1 CZO       0.066700
     28 HB1          1.2240    -2.8830    -1.5840 h1         1 CZO       0.050700
     29 HG1          1.7330    -5.2260    -1.0120 hc         1 CZO       0.034700
     30 HG1A         3.1250    -4.1870    -0.6610 hc         1 CZO       0.034700
     31 HG1B         2.1000    -4.7730     0.6670 hc         1 CZO       0.034700
     32 HOG1        -0.4180    -4.2530    -0.7410 ho         1 CZO       0.424000
     33 HN2         -0.7850    -0.6920    -0.4970 hn         1 CZO       0.458000
     34 HA2         -0.5160     1.5810    -0.8160 h1         1 CZO       0.058700
     35 HA3          3.5420     1.6630     1.2930 h1         1 CZO       0.046700
     36 HA3A         3.6290    -0.0960     1.3680 h1         1 CZO       0.046700
     37 HB2         -1.3740     1.4080     2.1290 hc         1 CZO       0.056700
     38 HB2A        -1.4620     2.8480     1.1480 hc         1 CZO       0.056700
     39 HD1         -3.0500    -0.3930     1.8800 ha         1 CZO       0.120500
     40 HD2         -3.0630     2.9970    -0.8050 ha         1 CZO       0.120500
     41 HE1         -5.3030    -1.0430     1.0690 ha         1 CZO       0.111500
     42 HE2         -5.3190     2.3380    -1.6160 ha         1 CZO       0.111500
     43 HOH         -6.9770    -0.5540    -0.3030 ho         1 CZO       0.456000
     44 HO           2.2040    -0.1360    -1.6460 ho         1 CZO       0.541000
@<TRIPOS>BOND
     1     1     2 1   
     2     1    25 1   
     3     1    26 1   
     4     2     3 1   
     5     2     6 1   
     6     2    27 1   
     7     3     4 1   
     8     3     5 1   
     9     3    28 1   
    10     4    29 1   
    11     4    30 1   
    12     4    31 1   
    13     5    32 1   
    14     6     7 1   
    15     6     8 1   
    16     6    23 1   
    17     7    11 1   
    18     7    33 1   
    19     8     9 1   
    20     8    12 1   
    21     9    10 2   
    22     9    11 1   
    23    11    15 1   
    24    11    34 1   
    25    12    13 1   
    26    12    35 1   
    27    12    36 1   
    28    13    14 1   
    29    13    24 1   
    30    15    16 1   
    31    15    37 1   
    32    15    38 1   
    33    16    17 ar  
    34    16    18 ar  
    35    17    19 ar  
    36    17    39 1   
    37    18    20 ar  
    38    18    40 1   
    39    19    21 ar  
    40    19    41 1   
    41    20    21 ar  
    42    20    42 1   
    43    21    22 1   
    44    22    43 1   
    45    23    44 1   
@<TRIPOS>SUBSTRUCTURE
     1 CZO         1 TEMP              0 ****  ****    0 ROOT
