@<TRIPOS>MOLECULE
CZO
   44    45     1     0     0
SMALL
abcg2


@<TRIPOS>ATOM
      1 N1           0.9770    -1.9860     1.7450 n8         1 CZO      -0.995200
      2 CA1          1.5120    -1.9330     0.4000 c3         1 CZO       0.185500
      3 CB1          1.0240    -3.1160    -0.4390 c3         1 CZO       0.182300
      4 CG1          1.4790    -4.4420     0.1530 c3         1 CZO      -0.121100
      5 OG1         -0.3880    -3.0510    -0.5350 oh         1 CZO      -0.657000
      6 C1           1.2620    -0.5660    -0.2880 c5         1 CZO       0.561600
      7 N2          -0.1260    -0.1810    -0.1580 n7         1 CZO      -0.937400
      8 N3           1.9160     0.5170     0.4400 n          1 CZO      -0.417800
      9 C2           1.1380     1.6130     0.5320 c          1 CZO       0.559000
     10 O2           1.4890     2.7050     0.9430 o          1 CZO      -0.553000
     11 CA2         -0.2440     1.2410     0.0460 c5         1 CZO       0.099500
     12 CA3          3.3470     0.6300     0.5680 c3         1 CZO      -0.052000
     13 C3           4.0240     1.3450    -0.6210 c          1 CZO       0.712000
     14 O3           3.3750     1.4030    -1.6980 o          1 CZO      -0.708500
     15 CB2         -1.3220     1.6020     1.0710 c3         1 CZO      -0.013100
     16 CG2         -2.6890     1.1690     0.6250 ca         1 CZO      -0.101300
     17 CD1         -3.1660    -0.1100     0.8980 ca         1 CZO      -0.064500
     18 CD2         -3.5100     2.0210    -0.1110 ca         1 CZO      -0.064500
     19 CE1         -4.4150    -0.5240     0.4620 ca         1 CZO      -0.179500
     20 CE2         -4.7600     1.6230    -0.5590 ca         1 CZO      -0.179500
     21 CZ          -5.2220     0.3400    -0.2720 ca         1 CZO       0.120100
     22 OH          -6.4470    -0.0090    -0.7200 oh         1 CZO      -0.544100
     23 O            1.7370    -0.6190    -1.5970 oh         1 CZO      -0.761000
     24 OXT          5.1640     1.7780    -0.4240 o          1 CZO      -0.708500
     25 HN1          1.4920    -1.3480     2.3380 hn         1 CZO       0.404000
     26 HN1A         0.0310    -1.6230     1.7110 hn         1 CZO       0.404000
     27 HA1          2.5980    -2.0650     0.4640 h1         1 CZO       0.066700
     28 HB1          1.4760    -3.0220    -1.4340 h1         1 CZO       0.050700
     29 HG1          1.1240    -5.2770    -0.4560 hc         1 CZO       0.034700
     30 HG1A         2.5680    -4.5020     0.1770 hc         1 CZO       0.034700
     31 HG1B         1.1090    -4.5710     1.1690 hc         1 CZO       0.034700
     32 HOG1        -0.6770    -3.7770    -1.0960 ho         1 CZO       0.424000
     33 HN2         -0.7060    -0.5660    -0.8870 hn         1 CZO       0.458000
     34 HA2         -0.4330     1.8030    -0.8800 h1         1 CZO       0.058700
     35 HA3          3.5850     1.1560     1.4940 h1         1 CZO       0.046700
     36 HA3A         3.7810    -0.3670     0.6720 h1         1 CZO       0.046700
     37 HB2         -1.0670     1.1260     2.0210 hc         1 CZO       0.056700
     38 HB2A        -1.3020     2.6820     1.2330 hc         1 CZO       0.056700
     39 HD1         -2.5550    -0.7990     1.4670 ha         1 CZO       0.120500
     40 HD2         -3.1710     3.0250    -0.3400 ha         1 CZO       0.120500
     41 HE1         -4.7600    -1.5250     0.6970 ha         1 CZO       0.111500
     42 HE2         -5.3800     2.3040    -1.1270 ha         1 CZO       0.111500
     43 HOH         -6.6470    -0.9170    -0.4670 ho         1 CZO       0.456000
     44 HO           2.2900     0.1960    -1.7580 ho         1 CZO       0.541000
@<TRIPOS>BOND
     1     1     2 1   
     2     1    25 1   
     3     1    26 1   
     4     2     3 1   
     5     2     6 1   
     6     2    27 1   
     7     3     4 1   
     8     3     5 1   
     9     3    28 1   
    10     4    29 1   
    11     4    30 1   
    12     4    31 1   
    13     5    32 1   
    14     6     7 1   
    15     6     8 1   
    16     6    23 1   
    17     7    11 1   
    18     7    33 1   
    19     8     9 1   
    20     8    12 1   
    21     9    10 2   
    22     9    11 1   
    23    11    15 1   
    24    11    34 1   
    25    12    13 1   
    26    12    35 1   
    27    12    36 1   
    28    13    14 1   
    29    13    24 1   
    30    15    16 1   
    31    15    37 1   
    32    15    38 1   
    33    16    17 ar  
    34    16    18 ar  
    35    17    19 ar  
    36    17    39 1   
    37    18    20 ar  
    38    18    40 1   
    39    19    21 ar  
    40    19    41 1   
    41    20    21 ar  
    42    20    42 1   
    43    21    22 1   
    44    22    43 1   
    45    23    44 1   
@<TRIPOS>SUBSTRUCTURE
     1 CZO         1 TEMP              0 ****  ****    0 ROOT
