@<TRIPOS>MOLECULE
CZP
   60    64     1     0     0
SMALL
No Charge or Current Charge


@<TRIPOS>ATOM
      1 O25          3.1680     5.8880    -0.0760 oh         1 CZP      -0.528100
      2 C22          2.9170     4.9720    -1.0530 ca         1 CZP       0.149100
      3 C23          1.6320     4.8600    -1.6070 ca         1 CZP      -0.175500
      4 C24          1.3810     3.9120    -2.6150 ca         1 CZP      -0.058000
      5 C21          3.9490     4.1390    -1.5050 ca         1 CZP      -0.175500
      6 C20          3.7020     3.1910    -2.5130 ca         1 CZP      -0.058000
      7 C19          2.4140     3.0670    -3.0770 ca         1 CZP      -0.095800
      8 C6           2.1550     2.0600    -4.1460 ce         1 CZP       0.107800
      9 N7           0.9260     1.3780    -4.0830 nu         1 CZP      -0.785200
     10 C8           0.5810     0.2400    -4.9980 c6         1 CZP       0.176200
     11 C26          0.4820    -1.0760    -4.1700 c3         1 CZP      -0.103400
     12 C27         -0.6200    -1.1490    -3.0810 c5         1 CZP      -0.071700
     13 C28         -2.0730    -1.0470    -3.6120 c5         1 CZP      -0.078400
     14 C29         -2.9130    -1.3990    -2.3500 c5         1 CZP      -0.078400
     15 C30         -1.9930    -2.3380    -1.5030 c5         1 CZP      -0.078400
     16 C31         -0.7150    -2.5200    -2.3670 c5         1 CZP      -0.078400
     17 C9           1.6060     0.0590    -6.1510 c2         1 CZP       0.475900
     18 N4           2.7790     0.8110    -6.1120 n          1 CZP      -0.268500
     19 C5           3.0450     1.7800    -5.1200 c2         1 CZP      -0.139400
     20 N1           1.4600    -0.7030    -7.1860 n2         1 CZP      -0.636900
     21 C2           2.7470    -0.5310    -7.9560 c5         1 CZP       0.240200
     22 C3           3.5700     0.5730    -7.2200 c          1 CZP       0.528000
     23 O18          4.6070     1.1550    -7.5200 o          1 CZP      -0.465000
     24 O32          2.4690    -0.1340    -9.3290 os         1 CZP      -0.184000
     25 C10          3.5470    -1.8640    -7.9700 c3         1 CZP       0.002900
     26 C11          2.8390    -3.0350    -8.6530 ca         1 CZP      -0.117300
     27 C12          1.9960    -3.8870    -7.9110 ca         1 CZP      -0.048500
     28 C13          1.3490    -4.9660    -8.5380 ca         1 CZP      -0.179500
     29 C14          1.5410    -5.1990    -9.9090 ca         1 CZP       0.143100
     30 O17          0.9180    -6.2430   -10.5240 oh         1 CZP      -0.534100
     31 C15          2.3790    -4.3560   -10.6530 ca         1 CZP      -0.179500
     32 C16          3.0270    -3.2760   -10.0290 ca         1 CZP      -0.048500
     33 O1           1.5840     1.0490    -9.3530 oh         1 CZP      -0.436000
     34 H25          2.3390     6.3770     0.1120 ho         1 CZP       0.467000
     35 H23          0.8250     5.5040    -1.2660 ha         1 CZP       0.124500
     36 H24          0.3850     3.8440    -3.0460 ha         1 CZP       0.119000
     37 H21          4.9430     4.2250    -1.0740 ha         1 CZP       0.124500
     38 H20          4.5110     2.5440    -2.8460 ha         1 CZP       0.119000
     39 HN7          0.3360     1.5470    -3.2670 hn         1 CZP       0.465000
     40 H8          -0.3980     0.4220    -5.4650 h1         1 CZP       0.096700
     41 H261         0.3280    -1.9100    -4.8650 hc         1 CZP       0.058700
     42 H262         1.4550    -1.2690    -3.7000 hc         1 CZP       0.058700
     43 H27         -0.4130    -0.3550    -2.3530 hc         1 CZP       0.047700
     44 H281        -2.2570    -1.7620    -4.4240 hc         1 CZP       0.043950
     45 H282        -2.3130    -0.0500    -3.9980 hc         1 CZP       0.043950
     46 H291        -3.8590    -1.8820    -2.6190 hc         1 CZP       0.043200
     47 H292        -3.1680    -0.4960    -1.7830 hc         1 CZP       0.043200
     48 H301        -1.7520    -1.8740    -0.5390 hc         1 CZP       0.043200
     49 H302        -2.4730    -3.2980    -1.2810 hc         1 CZP       0.043200
     50 H311         0.1690    -2.7380    -1.7560 hc         1 CZP       0.043950
     51 H312        -0.8280    -3.3450    -3.0810 hc         1 CZP       0.043950
     52 H5           4.0070     2.2860    -5.2080 h4         1 CZP       0.231000
     53 H101         3.7950    -2.1440    -6.9390 hc         1 CZP       0.068200
     54 H102         4.5150    -1.6920    -8.4570 hc         1 CZP       0.068200
     55 H12          1.8390    -3.7100    -6.8490 ha         1 CZP       0.114500
     56 H13          0.7000    -5.6140    -7.9530 ha         1 CZP       0.119500
     57 H17          0.3790    -6.7180    -9.8560 ho         1 CZP       0.463000
     58 H15          2.5270    -4.5370   -11.7140 ha         1 CZP       0.119500
     59 H16          3.6740    -2.6260   -10.6150 ha         1 CZP       0.114500
     60 HO1          0.7310     0.6300    -9.0990 ho         1 CZP       0.453000
@<TRIPOS>BOND
     1     1     2 1   
     2     1    34 1   
     3     2     3 ar  
     4     2     5 ar  
     5     3     4 ar  
     6     3    35 1   
     7     4     7 ar  
     8     4    36 1   
     9     5     6 ar  
    10     5    37 1   
    11     6     7 ar  
    12     6    38 1   
    13     7     8 1   
    14     8     9 1   
    15     8    19 2   
    16     9    10 1   
    17     9    39 1   
    18    10    11 1   
    19    10    17 1   
    20    10    40 1   
    21    11    12 1   
    22    11    41 1   
    23    11    42 1   
    24    12    13 1   
    25    12    16 1   
    26    12    43 1   
    27    13    14 1   
    28    13    44 1   
    29    13    45 1   
    30    14    15 1   
    31    14    46 1   
    32    14    47 1   
    33    15    16 1   
    34    15    48 1   
    35    15    49 1   
    36    16    50 1   
    37    16    51 1   
    38    17    18 1   
    39    17    20 2   
    40    18    19 1   
    41    18    22 1   
    42    19    52 1   
    43    20    21 1   
    44    21    22 1   
    45    21    24 1   
    46    21    25 1   
    47    22    23 2   
    48    24    33 1   
    49    25    26 1   
    50    25    53 1   
    51    25    54 1   
    52    26    27 ar  
    53    26    32 ar  
    54    27    28 ar  
    55    27    55 1   
    56    28    29 ar  
    57    28    56 1   
    58    29    30 1   
    59    29    31 ar  
    60    30    57 1   
    61    31    32 ar  
    62    31    58 1   
    63    32    59 1   
    64    33    60 1   
@<TRIPOS>SUBSTRUCTURE
     1 CZP         1 TEMP              0 ****  ****    0 ROOT
