@<TRIPOS>MOLECULE
CZP
   60    64     1     0     0
SMALL
abcg2


@<TRIPOS>ATOM
      1 O25          2.5680     5.6250    -0.0390 oh         1 CZP      -0.528100
      2 C22          2.3990     4.7590    -1.0540 ca         1 CZP       0.149100
      3 C23          1.2500     4.7320    -1.8400 ca         1 CZP      -0.175500
      4 C24          1.1320     3.8120    -2.8680 ca         1 CZP      -0.058000
      5 C21          3.4230     3.8490    -1.3130 ca         1 CZP      -0.175500
      6 C20          3.2910     2.9300    -2.3370 ca         1 CZP      -0.058000
      7 C19          2.1480     2.8950    -3.1400 ca         1 CZP      -0.095800
      8 C6           2.0220     1.9300    -4.2410 ce         1 CZP       0.107800
      9 N7           0.7480     1.5040    -4.5850 nu         1 CZP      -0.785200
     10 C8           0.5970     0.1920    -5.1940 c6         1 CZP       0.176200
     11 C26          0.7300    -0.9800    -4.2040 c3         1 CZP      -0.103400
     12 C27         -0.2790    -0.9360    -3.0690 c5         1 CZP      -0.071700
     13 C28         -1.7470    -0.9690    -3.4980 c5         1 CZP      -0.078400
     14 C29         -2.5120    -1.3630    -2.2250 c5         1 CZP      -0.078400
     15 C30         -1.4860    -2.0940    -1.3240 c5         1 CZP      -0.078400
     16 C31         -0.1870    -2.1430    -2.1350 c5         1 CZP      -0.078400
     17 C9           1.6360     0.0350    -6.2530 c2         1 CZP       0.475900
     18 N4           2.8640     0.6360    -6.0200 n          1 CZP      -0.268500
     19 C5           3.0830     1.5200    -4.9570 c2         1 CZP      -0.139400
     20 N1           1.5500    -0.6660    -7.3080 n2         1 CZP      -0.636900
     21 C2           2.8590    -0.6460    -7.9210 c5         1 CZP       0.240200
     22 C3           3.6960     0.3200    -7.0550 c          1 CZP       0.528000
     23 O18          4.8310     0.6920    -7.2200 o          1 CZP      -0.465000
     24 O32          2.8170    -0.2350    -9.2550 os         1 CZP      -0.184000
     25 C10          3.5010    -2.0390    -7.9100 c3         1 CZP       0.002900
     26 C11          2.6960    -3.0700    -8.6470 ca         1 CZP      -0.117300
     27 C12          1.6890    -3.7830    -8.0040 ca         1 CZP      -0.048500
     28 C13          0.9350    -4.7330    -8.6730 ca         1 CZP      -0.179500
     29 C14          1.1760    -4.9900   -10.0210 ca         1 CZP       0.143100
     30 O17          0.4750    -5.9020   -10.7250 oh         1 CZP      -0.534100
     31 C15          2.1820    -4.2880   -10.6790 ca         1 CZP      -0.179500
     32 C16          2.9260    -3.3400    -9.9940 ca         1 CZP      -0.048500
     33 O1           2.3410     1.0880    -9.2970 oh         1 CZP      -0.436000
     34 H25          1.7920     6.1880     0.0560 ho         1 CZP       0.467000
     35 H23          0.4450     5.4350    -1.6560 ha         1 CZP       0.124500
     36 H24          0.2360     3.8350    -3.4760 ha         1 CZP       0.119000
     37 H21          4.3150     3.8530    -0.6990 ha         1 CZP       0.124500
     38 H20          4.0850     2.2140    -2.5000 ha         1 CZP       0.119000
     39 HN7          0.0490     1.6770    -3.8780 hn         1 CZP       0.465000
     40 H8          -0.3830     0.1460    -5.6750 h1         1 CZP       0.096700
     41 H261         0.6030    -1.9090    -4.7670 hc         1 CZP       0.058700
     42 H262         1.7450    -0.9970    -3.7920 hc         1 CZP       0.058700
     43 H27         -0.1130    -0.0360    -2.4630 hc         1 CZP       0.047700
     44 H281        -1.8740    -1.7320    -4.2740 hc         1 CZP       0.043950
     45 H282        -2.1010    -0.0250    -3.9180 hc         1 CZP       0.043950
     46 H291        -3.3770    -1.9860    -2.4550 hc         1 CZP       0.043200
     47 H292        -2.8940    -0.4740    -1.7200 hc         1 CZP       0.043200
     48 H301        -1.3310    -1.5370    -0.3980 hc         1 CZP       0.043200
     49 H302        -1.8240    -3.0900    -1.0370 hc         1 CZP       0.043200
     50 H311         0.7080    -2.1290    -1.5100 hc         1 CZP       0.043950
     51 H312        -0.1470    -3.0570    -2.7370 hc         1 CZP       0.043950
     52 H5           4.0940     1.8610    -4.8050 h4         1 CZP       0.231000
     53 H101         3.6280    -2.3330    -6.8660 hc         1 CZP       0.068200
     54 H102         4.5050    -1.9530    -8.3330 hc         1 CZP       0.068200
     55 H12          1.4880    -3.5980    -6.9560 ha         1 CZP       0.114500
     56 H13          0.1590    -5.2740    -8.1430 ha         1 CZP       0.119500
     57 H17         -0.1830    -6.3260   -10.1620 ho         1 CZP       0.463000
     58 H15          2.3800    -4.4860   -11.7250 ha         1 CZP       0.119500
     59 H16          3.7080    -2.8090   -10.5230 ha         1 CZP       0.114500
     60 HO1          1.3860     0.9710    -9.4140 ho         1 CZP       0.453000
@<TRIPOS>BOND
     1     1     2 1   
     2     1    34 1   
     3     2     3 ar  
     4     2     5 ar  
     5     3     4 ar  
     6     3    35 1   
     7     4     7 ar  
     8     4    36 1   
     9     5     6 ar  
    10     5    37 1   
    11     6     7 ar  
    12     6    38 1   
    13     7     8 1   
    14     8     9 1   
    15     8    19 2   
    16     9    10 1   
    17     9    39 1   
    18    10    11 1   
    19    10    17 1   
    20    10    40 1   
    21    11    12 1   
    22    11    41 1   
    23    11    42 1   
    24    12    13 1   
    25    12    16 1   
    26    12    43 1   
    27    13    14 1   
    28    13    44 1   
    29    13    45 1   
    30    14    15 1   
    31    14    46 1   
    32    14    47 1   
    33    15    16 1   
    34    15    48 1   
    35    15    49 1   
    36    16    50 1   
    37    16    51 1   
    38    17    18 1   
    39    17    20 2   
    40    18    19 1   
    41    18    22 1   
    42    19    52 1   
    43    20    21 1   
    44    21    22 1   
    45    21    24 1   
    46    21    25 1   
    47    22    23 2   
    48    24    33 1   
    49    25    26 1   
    50    25    53 1   
    51    25    54 1   
    52    26    27 ar  
    53    26    32 ar  
    54    27    28 ar  
    55    27    55 1   
    56    28    29 ar  
    57    28    56 1   
    58    29    30 1   
    59    29    31 ar  
    60    30    57 1   
    61    31    32 ar  
    62    31    58 1   
    63    32    59 1   
    64    33    60 1   
@<TRIPOS>SUBSTRUCTURE
     1 CZP         1 TEMP              0 ****  ****    0 ROOT
