@<TRIPOS>MOLECULE
CZQ
   58    60     1     0     0
SMALL
No Charge or Current Charge


@<TRIPOS>ATOM
      1 C10          7.0380     1.1510     0.4540 c6         1 CZQ       0.065500
      2 C13         -6.5090     3.0030    -1.6200 c5         1 CZQ      -0.079400
      3 C15         -6.5500     2.9520     0.8070 c5         1 CZQ      -0.093400
      4 C20          7.0930    -1.4030    -2.2100 c3         1 CZQ      -0.105600
      5 C21          9.6040     1.1300     0.2580 c3         1 CZQ      -0.105600
      6 C01          4.5280     1.0200     0.6170 c          1 CZQ       0.606100
      7 N01          5.7490     0.4260     0.2060 n          1 CZQ      -0.416800
      8 O01          2.0360     0.9830     0.7440 os         1 CZQ      -0.280000
      9 C02          3.2150     0.2250     0.3830 c3         1 CZQ       0.085600
     10 N02          0.8770     0.2140     0.5110 n2         1 CZQ      -0.335700
     11 O02         -5.1470     1.0230     1.1860 os         1 CZQ      -0.325100
     12 C03          5.8710    -1.0630     0.0520 c6         1 CZQ       0.065500
     13 O03         -5.4180    -1.5430     0.2280 os         1 CZQ      -0.376100
     14 C04         -0.2280     0.8270     0.8110 ce         1 CZQ       0.426800
     15 O04          8.3230    -0.8570    -0.1560 os         1 CZQ      -0.453000
     16 C05          7.1620    -1.5510    -0.6630 c6         1 CZQ       0.153800
     17 O05          4.5220     2.1520     1.0930 o          1 CZQ      -0.576100
     18 C06         -1.5700     0.1820     0.6350 ca         1 CZQ      -0.096900
     19 C07         -2.7350     0.8950     0.9850 ca         1 CZQ      -0.182000
     20 C08          8.2700     0.5760    -0.2960 c6         1 CZQ       0.153800
     21 C09         -4.0120     0.3180     0.8250 ca         1 CZQ       0.157100
     22 C11         -5.2740     2.2090     0.3570 c5         1 CZQ       0.164300
     23 C12         -5.6660     1.7950    -1.0930 c5         1 CZQ      -0.093400
     24 C14         -6.7110     3.9290    -0.3820 c5         1 CZQ      -0.079400
     25 C16         -4.1400    -1.0060     0.3440 ca         1 CZQ       0.056100
     26 C18         -2.9720    -1.7210    -0.0090 ca         1 CZQ      -0.079000
     27 C19         -1.7040    -1.1300     0.1320 ca         1 CZQ      -0.108000
     28 F01         -5.2610    -3.0260    -1.5380 f          1 CZQ      -0.134500
     29 F02         -5.1220    -3.8220     0.4880 f          1 CZQ      -0.134500
     30 H22          6.9250     2.2070     0.1700 h1         1 CZQ       0.062450
     31 H21          7.2400     1.1300     1.5350 h1         1 CZQ       0.062450
     32 H08         -7.4700     2.6590    -2.0200 hc         1 CZQ       0.047950
     33 H15         -7.4110     2.2810     0.9080 hc         1 CZQ       0.057450
     34 H16         -6.4150     3.4750     1.7610 hc         1 CZQ       0.057450
     35 H17         -6.7910    -3.0400    -0.2650 h3         1 CZQ       0.103700
     36 H27          6.7630    -0.4040    -2.5170 hc         1 CZQ       0.046200
     37 H28          8.0680    -1.6010    -2.6710 hc         1 CZQ       0.046200
     38 H26          6.3790    -2.1200    -2.6320 hc         1 CZQ       0.046200
     39 H25          9.7330     0.8770     1.3170 hc         1 CZQ       0.046200
     40 H23         10.4590     0.7210    -0.2940 hc         1 CZQ       0.046200
     41 H24          9.6430     2.2220     0.1670 hc         1 CZQ       0.046200
     42 H01          3.1830    -0.0520    -0.6780 h1         1 CZQ       0.055700
     43 H02          3.2740    -0.6960     0.9760 h1         1 CZQ       0.055700
     44 H10          5.8420    -1.5140     1.0550 h1         1 CZQ       0.062450
     45 H12          5.0090    -1.4610    -0.5000 h1         1 CZQ       0.062450
     46 H03         -0.2230     1.8450     1.2070 h4         1 CZQ       0.012800
     47 H14          7.2930    -2.6220    -0.4470 h1         1 CZQ       0.060200
     48 H04         -2.6440     1.8980     1.3960 ha         1 CZQ       0.125000
     49 H19          8.2090     0.8430    -1.3600 h1         1 CZQ       0.060200
     50 H05         -4.3850     2.8510     0.4050 h1         1 CZQ       0.047700
     51 H07         -6.2660     0.8770    -1.0990 hc         1 CZQ       0.057450
     52 H06         -4.7840     1.6070    -1.7150 hc         1 CZQ       0.057450
     53 H13         -5.9510     4.7200    -0.3500 hc         1 CZQ       0.047950
     54 H11         -7.6890     4.4240    -0.3870 hc         1 CZQ       0.047950
     55 H18         -3.0210    -2.7360    -0.3910 ha         1 CZQ       0.135000
     56 H20         -0.8240    -1.7060    -0.1460 ha         1 CZQ       0.135000
     57 H09         -6.0000     3.5340    -2.4340 hc         1 CZQ       0.047950
     58 C17         -5.7100    -2.8670    -0.2710 c3         1 CZQ       0.385300
@<TRIPOS>BOND
     1     1     7 1   
     2     1    20 1   
     3     1    30 1   
     4     1    31 1   
     5     2    23 1   
     6     2    24 1   
     7     2    32 1   
     8     2    57 1   
     9     3    22 1   
    10     3    24 1   
    11     3    33 1   
    12     3    34 1   
    13     4    16 1   
    14     4    36 1   
    15     4    37 1   
    16     4    38 1   
    17     5    20 1   
    18     5    39 1   
    19     5    40 1   
    20     5    41 1   
    21     6     7 1   
    22     6     9 1   
    23     6    17 2   
    24     7    12 1   
    25     8     9 1   
    26     8    10 1   
    27     9    42 1   
    28     9    43 1   
    29    10    14 2   
    30    11    21 1   
    31    11    22 1   
    32    12    16 1   
    33    12    44 1   
    34    12    45 1   
    35    13    25 1   
    36    13    58 1   
    37    14    18 1   
    38    14    46 1   
    39    15    16 1   
    40    15    20 1   
    41    16    47 1   
    42    18    19 ar  
    43    18    27 ar  
    44    19    21 ar  
    45    19    48 1   
    46    20    49 1   
    47    21    25 ar  
    48    22    23 1   
    49    22    50 1   
    50    23    51 1   
    51    23    52 1   
    52    24    53 1   
    53    24    54 1   
    54    25    26 ar  
    55    26    27 ar  
    56    26    55 1   
    57    27    56 1   
    58    28    58 1   
    59    29    58 1   
    60    35    58 1   
@<TRIPOS>SUBSTRUCTURE
     1 CZQ         1 TEMP              0 ****  ****    0 ROOT
