@<TRIPOS>MOLECULE
CZQ
   58    60     1     0     0
SMALL
bcc


@<TRIPOS>ATOM
      1 C10          6.7370     1.2430     0.6440 c6         1 CZQ       0.065500
      2 C13         -5.7770     3.9610    -0.9320 c5         1 CZQ      -0.079400
      3 C15         -6.4720     2.2920     0.6290 c5         1 CZQ      -0.093400
      4 C20          6.3290    -1.4940    -1.7170 c3         1 CZQ      -0.105600
      5 C21          9.0970     1.5110    -0.1630 c3         1 CZQ      -0.105600
      6 C01          4.3340     0.9340     0.3450 c          1 CZQ       0.673100
      7 N01          5.5550     0.4060     0.5550 n          1 CZQ      -0.483800
      8 O01          2.0070     0.6920     0.0870 os         1 CZQ      -0.158300
      9 C02          3.1820    -0.0590     0.2690 c3         1 CZQ       0.062400
     10 N02          0.9410    -0.1490    -0.0420 n2         1 CZQ      -0.434200
     11 O02         -5.0220     0.5470    -0.1490 os         1 CZQ      -0.301900
     12 C03          5.8540    -1.0030     0.7230 c6         1 CZQ       0.065500
     13 O03         -5.1320    -2.0520    -0.6740 os         1 CZQ      -0.352900
     14 C04         -0.1620     0.4770    -0.0670 ce         1 CZQ       0.426800
     15 O04          8.0430    -0.6100    -0.2040 os         1 CZQ      -0.406600
     16 C05          6.8960    -1.4350    -0.3050 c6         1 CZQ       0.130600
     17 O05          4.1330     2.1300     0.2210 o          1 CZQ      -0.576100
     18 C06         -1.4290    -0.2350    -0.2200 ca         1 CZQ      -0.096900
     19 C07         -2.6010     0.5130    -0.1150 ca         1 CZQ      -0.200000
     20 C08          7.7880     0.7760    -0.3560 c6         1 CZQ       0.130600
     21 C09         -3.8500    -0.0890    -0.2380 ca         1 CZQ       0.157100
     22 C11         -5.0490     1.9190     0.2300 c5         1 CZQ       0.141100
     23 C12         -4.6630     2.8980    -0.9020 c5         1 CZQ      -0.093400
     24 C14         -6.5060     3.7980     0.4040 c5         1 CZQ      -0.079400
     25 C16         -3.8970    -1.4660    -0.4870 ca         1 CZQ       0.056100
     26 C18         -2.7360    -2.2090    -0.6050 ca         1 CZQ      -0.097000
     27 C19         -1.4980    -1.6020    -0.4720 ca         1 CZQ      -0.126000
     28 F01         -4.9940    -3.7730     0.7480 f          1 CZQ      -0.255800
     29 F02         -5.7290    -1.8850     1.4770 f          1 CZQ      -0.255800
     30 H22          6.4700     2.2780     0.4440 h1         1 CZQ       0.062450
     31 H21          7.1380     1.1900     1.6630 h1         1 CZQ       0.062450
     32 H08         -6.4710     3.7600    -1.7510 hc         1 CZQ       0.047950
     33 H15         -7.1810     1.8010    -0.0450 hc         1 CZQ       0.057450
     34 H16         -6.7130     1.9890     1.6480 hc         1 CZQ       0.057450
     35 H17         -6.7160    -2.9710     0.1100 h3         1 CZQ       0.103700
     36 H27          5.8890    -0.5500    -2.0410 hc         1 CZQ       0.046200
     37 H28          7.1080    -1.7640    -2.4310 hc         1 CZQ       0.046200
     38 H26          5.5510    -2.2560    -1.7720 hc         1 CZQ       0.046200
     39 H25          9.4930     1.3540     0.8420 hc         1 CZQ       0.046200
     40 H23          9.8430     1.1760    -0.8830 hc         1 CZQ       0.046200
     41 H24          8.9520     2.5810    -0.3080 hc         1 CZQ       0.046200
     42 H01          3.3330    -0.7580    -0.5620 h1         1 CZQ       0.055700
     43 H02          3.1260    -0.6490     1.1900 h1         1 CZQ       0.055700
     44 H10          6.2430    -1.1660     1.7330 h1         1 CZQ       0.062450
     45 H12          4.9680    -1.6240     0.6230 h1         1 CZQ       0.062450
     46 H03         -0.2060     1.5620     0.0280 h4         1 CZQ       0.012800
     47 H14          7.2350    -2.4360    -0.0270 h1         1 CZQ       0.060200
     48 H04         -2.5200     1.5770     0.0650 ha         1 CZQ       0.143000
     49 H19          7.4100     0.9820    -1.3670 h1         1 CZQ       0.060200
     50 H05         -4.3880     2.0600     1.0920 h1         1 CZQ       0.047700
     51 H07         -4.5750     2.3740    -1.8560 hc         1 CZQ       0.057450
     52 H06         -3.6920     3.3530    -0.7030 hc         1 CZQ       0.057450
     53 H13         -5.9620     4.3100     1.2020 hc         1 CZQ       0.047950
     54 H11         -7.5190     4.2020     0.3890 hc         1 CZQ       0.047950
     55 H18         -2.7980    -3.2660    -0.8240 ha         1 CZQ       0.153000
     56 H20         -0.5970    -2.1910    -0.5710 ha         1 CZQ       0.153000
     57 H09         -5.3880     4.9680    -1.0840 hc         1 CZQ       0.047950
     58 C17         -5.7060    -2.6770     0.3840 c3         1 CZQ       0.604700
@<TRIPOS>BOND
     1     1     7 1   
     2     1    20 1   
     3     1    30 1   
     4     1    31 1   
     5     2    23 1   
     6     2    24 1   
     7     2    32 1   
     8     2    57 1   
     9     3    22 1   
    10     3    24 1   
    11     3    33 1   
    12     3    34 1   
    13     4    16 1   
    14     4    36 1   
    15     4    37 1   
    16     4    38 1   
    17     5    20 1   
    18     5    39 1   
    19     5    40 1   
    20     5    41 1   
    21     6     7 1   
    22     6     9 1   
    23     6    17 2   
    24     7    12 1   
    25     8     9 1   
    26     8    10 1   
    27     9    42 1   
    28     9    43 1   
    29    10    14 2   
    30    11    21 1   
    31    11    22 1   
    32    12    16 1   
    33    12    44 1   
    34    12    45 1   
    35    13    25 1   
    36    13    58 1   
    37    14    18 1   
    38    14    46 1   
    39    15    16 1   
    40    15    20 1   
    41    16    47 1   
    42    18    19 ar  
    43    18    27 ar  
    44    19    21 ar  
    45    19    48 1   
    46    20    49 1   
    47    21    25 ar  
    48    22    23 1   
    49    22    50 1   
    50    23    51 1   
    51    23    52 1   
    52    24    53 1   
    53    24    54 1   
    54    25    26 ar  
    55    26    27 ar  
    56    26    55 1   
    57    27    56 1   
    58    28    58 1   
    59    29    58 1   
    60    35    58 1   
@<TRIPOS>SUBSTRUCTURE
     1 CZQ         1 TEMP              0 ****  ****    0 ROOT
