@<TRIPOS>MOLECULE
CZS
   24    25     1     0     0
SMALL
bcc


@<TRIPOS>ATOM
      1 N           -2.8660     1.0430    -1.3480 n8         1 CZS      -0.888800
      2 C3          -3.2370    -0.0370    -0.4480 c3         1 CZS       0.006500
      3 C29         -2.4290     0.0880     0.8440 c3         1 CZS      -0.097700
      4 C30         -0.9640     0.1470     0.5940 cc         1 CZS       0.483200
      5 S           -0.1760    -1.1590    -0.2750 ss         1 CZS      -0.101100
      6 C36          1.3330    -0.3340    -0.0940 ca         1 CZS      -0.071100
      7 C35          2.5890    -0.7210    -0.5280 ca         1 CZS      -0.079000
      8 C34          3.6430     0.1200    -0.2200 ca         1 CZS       0.014400
      9 CL           5.2370    -0.3090    -0.7430 cl         1 CZS      -0.139400
     10 C33          3.4660     1.3030     0.5020 ca         1 CZS      -0.136000
     11 C32          2.2060     1.6700     0.9320 ca         1 CZS      -0.079000
     12 C31          1.1240     0.8520     0.6270 ca         1 CZS       0.117400
     13 N5          -0.1780     1.0820     0.9970 nd         1 CZS      -0.575100
     14 C4          -4.7560    -0.1680    -0.1480 c          1 CZS       0.910600
     15 O3          -5.5210     0.4680    -0.8960 o          1 CZS      -0.829800
     16 H9          -3.4930     1.0090    -2.1440 hn         1 CZS       0.333800
     17 H           -2.9480    -0.9810    -0.9340 h1         1 CZS       0.041700
     18 H44         -2.7070     1.0010     1.3770 hc         1 CZS       0.077200
     19 H45         -2.6560    -0.7510     1.5040 hc         1 CZS       0.077200
     20 H48          2.7450    -1.6360    -1.0810 ha         1 CZS       0.148000
     21 H47          4.3190     1.9280     0.7280 ha         1 CZS       0.136000
     22 H46          2.0580     2.5800     1.4980 ha         1 CZS       0.146000
     23 H2          -3.0780     1.9270    -0.8940 hn         1 CZS       0.333800
     24 OXT         -5.0710    -0.9210     0.7930 o          1 CZS      -0.829800
@<TRIPOS>BOND
     1     1     2 1   
     2     1    16 1   
     3     1    23 1   
     4     2     3 1   
     5     2    14 1   
     6     2    17 1   
     7     3     4 1   
     8     3    18 1   
     9     3    19 1   
    10     4     5 1   
    11     4    13 2   
    12     5     6 1   
    13     6     7 ar  
    14     6    12 ar  
    15     7     8 ar  
    16     7    20 1   
    17     8     9 1   
    18     8    10 ar  
    19    10    11 ar  
    20    10    21 1   
    21    11    12 ar  
    22    11    22 1   
    23    12    13 1   
    24    14    15 1   
    25    14    24 1   
@<TRIPOS>SUBSTRUCTURE
     1 CZS         1 TEMP              0 ****  ****    0 ROOT
