@<TRIPOS>MOLECULE
CZS
   24    25     1     0     0
SMALL
No Charge or Current Charge


@<TRIPOS>ATOM
      1 N           -3.0380     1.3710    -1.2240 n8         1 CZS      -0.888800
      2 C3          -3.2890     0.0790    -0.4830 c3         1 CZS       0.006500
      3 C29         -2.3940     0.0120     0.7830 c3         1 CZS      -0.097700
      4 C30         -0.9150     0.0890     0.5150 cc         1 CZS       0.483200
      5 S           -0.1420    -1.1380    -0.5220 ss         1 CZS      -0.101100
      6 C36          1.3580    -0.3070    -0.1630 ca         1 CZS      -0.071100
      7 C35          2.6270    -0.6580    -0.6500 ca         1 CZS      -0.079000
      8 C34          3.7340     0.1170    -0.2580 ca         1 CZS       0.014400
      9 Cl           5.3400    -0.2890    -0.8450 cl         1 CZS      -0.139400
     10 C33          3.5600     1.2170     0.6070 ca         1 CZS      -0.136000
     11 C32          2.2720     1.5460     1.0820 ca         1 CZS      -0.079000
     12 C31          1.1720     0.7690     0.6840 ca         1 CZS       0.117400
     13 N5          -0.1320     1.0110     1.0990 nd         1 CZS      -0.575100
     14 C4          -4.7990    -0.2580    -0.1150 c          1 CZS       0.910600
     15 O3          -5.2780    -1.3140    -0.5110 o          1 CZS      -0.829800
     16 H9          -3.5710     1.3670    -2.1010 hn         1 CZS       0.333800
     17 H           -2.9620    -0.7270    -1.1530 h1         1 CZS       0.041700
     18 H44         -2.6870     0.8120     1.4740 hc         1 CZS       0.077200
     19 H45         -2.5970    -0.9290     1.3070 hc         1 CZS       0.077200
     20 H48          2.7510    -1.5090    -1.3150 ha         1 CZS       0.148000
     21 H47          4.4180     1.8130     0.9090 ha         1 CZS       0.136000
     22 H46          2.1300     2.3920     1.7490 ha         1 CZS       0.146000
     23 H2          -3.4520     2.1440    -0.6900 hn         1 CZS       0.333800
     24 OXT         -5.4670     0.5920     0.4670 o          1 CZS      -0.829800
@<TRIPOS>BOND
     1     1     2 1   
     2     1    16 1   
     3     1    23 1   
     4     2     3 1   
     5     2    14 1   
     6     2    17 1   
     7     3     4 1   
     8     3    18 1   
     9     3    19 1   
    10     4     5 1   
    11     4    13 2   
    12     5     6 1   
    13     6     7 ar  
    14     6    12 ar  
    15     7     8 ar  
    16     7    20 1   
    17     8     9 1   
    18     8    10 ar  
    19    10    11 ar  
    20    10    21 1   
    21    11    12 ar  
    22    11    22 1   
    23    12    13 1   
    24    14    15 1   
    25    14    24 1   
@<TRIPOS>SUBSTRUCTURE
     1 CZS         1 TEMP              0 ****  ****    0 ROOT
