@<TRIPOS>MOLECULE
CZT
   63    65     1     0     0
SMALL
No Charge or Current Charge


@<TRIPOS>ATOM
      1 C10         -6.1910    -1.6220    -0.3490 c5         1 CZT       0.166300
      2 C13         -7.5490    -3.4280     0.3280 c5         1 CZT      -0.079400
      3 C15         -5.2390     1.6610    -0.2760 ca         1 CZT       0.124100
      4 C17         -4.1300     2.4430     0.1180 ca         1 CZT      -0.182000
      5 C20          8.3800     0.0170     0.9520 c6         1 CZT       0.170300
      6 C21          9.5970     0.8540     1.4130 c3         1 CZT      -0.088100
      7 C22          4.7480     0.9110    -0.0580 c3         1 CZT       0.127800
      8 C01          8.2620    -2.1630    -2.0810 c3         1 CZT      -0.088100
      9 C02          7.7120    -1.4960    -0.7990 c6         1 CZT       0.170300
     10 C03          6.4260    -0.6510    -1.0690 c6         1 CZT       0.132300
     11 N01          5.9750     0.0870     0.1580 n3         1 CZT      -0.746600
     12 C04          3.4800     0.0580    -0.3190 c3         1 CZT       0.167300
     13 C05          2.1650     0.8450    -0.0680 c3         1 CZT       0.164600
     14 O01          1.0440     0.0300    -0.4720 os         1 CZT      -0.303000
     15 N02         -0.1650     0.7300    -0.2750 n2         1 CZT      -0.336700
     16 C07         -2.6050     0.6240    -0.4800 ca         1 CZT      -0.141900
     17 C08         -3.7130    -0.1550    -0.8710 ca         1 CZT      -0.154000
     18 C09         -5.0260     0.3480    -0.7540 ca         1 CZT       0.116100
     19 O02         -6.1100    -0.4150    -1.1550 os         1 CZT      -0.327100
     20 C11         -6.6340    -1.2560     1.0990 c5         1 CZT      -0.095400
     21 C12         -7.4410    -2.5070     1.5810 c5         1 CZT      -0.079400
     22 C14         -7.4130    -2.4250    -0.8420 c5         1 CZT      -0.095400
     23 C16         -6.8470     3.4550     0.2970 c3         1 CZT       0.145900
     24 C18         -2.8270     1.9250     0.0200 ca         1 CZT      -0.069000
     25 O04          3.5970    -1.0870     0.5380 oh         1 CZT      -0.654000
     26 C19          7.1080     0.8910     0.7140 c6         1 CZT       0.132300
     27 O05          8.7620    -0.6530    -0.2720 os         1 CZT      -0.458000
     28 H11         -5.2670    -2.2150    -0.3890 h1         1 CZT       0.044700
     29 H17         -6.7410    -4.1700     0.3110 hc         1 CZT       0.044450
     30 H16         -8.4950    -3.9810     0.2980 hc         1 CZT       0.044450
     31 H23         -4.2570     3.4520     0.4990 ha         1 CZT       0.120000
     32 H34          8.1640    -0.7410     1.7190 h1         1 CZT       0.043700
     33 H33          9.3830     1.3680     2.3570 hc         1 CZT       0.045700
     34 H31         10.4740     0.2170     1.5730 hc         1 CZT       0.045700
     35 H29          4.5620     1.5220     0.8360 h1         1 CZT       0.045700
     36 H30          4.8910     1.6090    -0.8950 h1         1 CZT       0.045700
     37 H03          9.1620    -2.7490    -1.8630 hc         1 CZT       0.045700
     38 H02          7.5210    -2.8420    -2.5180 hc         1 CZT       0.045700
     39 H01          8.5200    -1.4150    -2.8400 hc         1 CZT       0.045700
     40 H04          7.4840    -2.2810    -0.0630 h1         1 CZT       0.043700
     41 H06          6.6360     0.0610    -1.8820 h1         1 CZT       0.044450
     42 H05          5.6370    -1.3250    -1.4310 h1         1 CZT       0.044450
     43 H28          3.4980    -0.2620    -1.3690 h1         1 CZT       0.042700
     44 H07          2.0940     1.1110     0.9950 h1         1 CZT       0.042200
     45 H08          2.1910     1.7750    -0.6520 h1         1 CZT       0.042200
     46 H10         -3.5500    -1.1490    -1.2800 ha         1 CZT       0.121000
     47 H13         -5.7750    -1.0480     1.7460 hc         1 CZT       0.057200
     48 H12         -7.2690    -0.3620     1.1100 hc         1 CZT       0.057200
     49 H14         -8.4330    -2.2100     1.9410 hc         1 CZT       0.044450
     50 H15         -6.9440    -3.0210     2.4120 hc         1 CZT       0.044450
     51 H18         -8.3070    -1.8000    -0.9550 hc         1 CZT       0.057200
     52 H19         -7.2270    -2.9250    -1.8000 hc         1 CZT       0.057200
     53 H20         -6.5060     3.5730     1.3330 h1         1 CZT       0.040367
     54 H21         -6.3700     4.2250    -0.3230 h1         1 CZT       0.040367
     55 H22         -7.9300     3.6230     0.2740 h1         1 CZT       0.040367
     56 H24         -1.9890     2.5480     0.3290 ha         1 CZT       0.130000
     57 H27          4.5710    -1.0870     0.7220 ho         1 CZT       0.467000
     58 H25          6.8150     1.3530     1.6680 h1         1 CZT       0.044450
     59 H26          7.3650     1.7100     0.0260 h1         1 CZT       0.044450
     60 O03         -6.5370     2.1390    -0.1960 os         1 CZT      -0.319100
     61 C06         -1.2240     0.0560    -0.6110 ce         1 CZT       0.427800
     62 H32          9.8620     1.6150     0.6690 hc         1 CZT       0.045700
     63 H09         -1.1480    -0.9600    -1.0070 h4         1 CZT       0.003800
@<TRIPOS>BOND
     1     1    19 1   
     2     1    20 1   
     3     1    22 1   
     4     1    28 1   
     5     2    21 1   
     6     2    22 1   
     7     2    29 1   
     8     2    30 1   
     9     3     4 ar  
    10     3    18 ar  
    11     3    60 1   
    12     4    24 ar  
    13     4    31 1   
    14     5     6 1   
    15     5    26 1   
    16     5    27 1   
    17     5    32 1   
    18     6    33 1   
    19     6    34 1   
    20     6    62 1   
    21     7    11 1   
    22     7    12 1   
    23     7    35 1   
    24     7    36 1   
    25     8     9 1   
    26     8    37 1   
    27     8    38 1   
    28     8    39 1   
    29     9    10 1   
    30     9    27 1   
    31     9    40 1   
    32    10    11 1   
    33    10    41 1   
    34    10    42 1   
    35    11    26 1   
    36    12    13 1   
    37    12    25 1   
    38    12    43 1   
    39    13    14 1   
    40    13    44 1   
    41    13    45 1   
    42    14    15 1   
    43    15    61 2   
    44    16    17 ar  
    45    16    24 ar  
    46    16    61 1   
    47    17    18 ar  
    48    17    46 1   
    49    18    19 1   
    50    20    21 1   
    51    20    47 1   
    52    20    48 1   
    53    21    49 1   
    54    21    50 1   
    55    22    51 1   
    56    22    52 1   
    57    23    53 1   
    58    23    54 1   
    59    23    55 1   
    60    23    60 1   
    61    24    56 1   
    62    25    57 1   
    63    26    58 1   
    64    26    59 1   
    65    61    63 1   
@<TRIPOS>SUBSTRUCTURE
     1 CZT         1 TEMP              0 ****  ****    0 ROOT
