@<TRIPOS>MOLECULE
CZT
   63    65     1     0     0
SMALL
abcg2


@<TRIPOS>ATOM
      1 C10         -6.0240    -1.5070    -0.2790 c5         1 CZT       0.166300
      2 C13         -7.2800    -3.5470    -0.3650 c5         1 CZT      -0.079400
      3 C15         -5.1460     2.0270    -0.0160 ca         1 CZT       0.124100
      4 C17         -4.0370     2.8600     0.0430 ca         1 CZT      -0.182000
      5 C20          8.0510     0.1070     0.8100 c6         1 CZT       0.170300
      6 C21          9.3140     0.8990     1.0730 c3         1 CZT      -0.088100
      7 C22          4.5850     0.9820    -0.3350 c3         1 CZT       0.127800
      8 C01          7.6490    -2.7130    -1.4980 c3         1 CZT      -0.088100
      9 C02          7.2240    -1.6880    -0.4680 c6         1 CZT       0.170300
     10 C03          6.0770    -0.8240    -0.9680 c6         1 CZT       0.132300
     11 N01          5.7470     0.1910     0.0180 n3         1 CZT      -0.746600
     12 C04          3.3130     0.1650    -0.0890 c3         1 CZT       0.167300
     13 C05          2.1080     1.0770    -0.1190 c3         1 CZT       0.164600
     14 O01          0.9490     0.2660    -0.0620 os         1 CZT      -0.303000
     15 N02         -0.1750     1.0390    -0.0560 n2         1 CZT      -0.336700
     16 C07         -2.5580     0.9630    -0.0510 ca         1 CZT      -0.141900
     17 C08         -3.6750     0.1200    -0.1110 ca         1 CZT      -0.154000
     18 C09         -4.9610     0.6310    -0.0970 ca         1 CZT       0.116100
     19 O02         -6.0910    -0.0950    -0.1670 os         1 CZT      -0.327100
     20 C11         -5.7280    -2.2400     1.0270 c5         1 CZT      -0.095400
     21 C12         -6.2060    -3.6700     0.7460 c5         1 CZT      -0.079400
     22 C14         -7.3870    -2.0510    -0.6780 c5         1 CZT      -0.095400
     23 C16         -6.6760     3.8310     0.0720 c3         1 CZT       0.145900
     24 C18         -2.7510     2.3350     0.0250 ca         1 CZT      -0.069000
     25 O04          3.4000    -0.4780     1.1580 oh         1 CZT      -0.654000
     26 C19          6.9170     0.9950     0.3210 c6         1 CZT       0.132300
     27 O05          8.3460    -0.8880    -0.1520 os         1 CZT      -0.458000
     28 H11         -5.2880    -1.7840    -1.0460 h1         1 CZT       0.044700
     29 H17         -6.9720    -4.1010    -1.2540 hc         1 CZT       0.044450
     30 H16         -8.2400    -3.9590    -0.0570 hc         1 CZT       0.044450
     31 H23         -4.1570     3.9330     0.1050 ha         1 CZT       0.120000
     32 H34          7.7210    -0.3750     1.7430 h1         1 CZT       0.043700
     33 H33          9.1290     1.6610     1.8300 hc         1 CZT       0.045700
     34 H31         10.1120     0.2540     1.4420 hc         1 CZT       0.045700
     35 H29          4.5740     1.8630     0.3140 h1         1 CZT       0.045700
     36 H30          4.6110     1.3440    -1.3730 h1         1 CZT       0.045700
     37 H03          8.4700    -3.3260    -1.1250 hc         1 CZT       0.045700
     38 H02          6.8170    -3.3790    -1.7310 hc         1 CZT       0.045700
     39 H01          7.9700    -2.2350    -2.4250 hc         1 CZT       0.045700
     40 H04          6.8790    -2.2060     0.4410 h1         1 CZT       0.043700
     41 H06          6.3480    -0.3700    -1.9370 h1         1 CZT       0.044450
     42 H05          5.2100    -1.4660    -1.1430 h1         1 CZT       0.044450
     43 H28          3.1980    -0.5720    -0.8990 h1         1 CZT       0.042700
     44 H07          2.1380     1.7710     0.7290 h1         1 CZT       0.042200
     45 H08          2.1180     1.6680    -1.0430 h1         1 CZT       0.042200
     46 H10         -3.5110    -0.9480    -0.1650 ha         1 CZT       0.121000
     47 H13         -4.6830    -2.2000     1.3350 hc         1 CZT       0.057200
     48 H12         -6.3210    -1.7820     1.8240 hc         1 CZT       0.057200
     49 H14         -6.5960    -4.1420     1.6470 hc         1 CZT       0.044450
     50 H15         -5.3750    -4.2880     0.4040 hc         1 CZT       0.044450
     51 H18         -8.1520    -1.5810    -0.0540 hc         1 CZT       0.057200
     52 H19         -7.6370    -1.8470    -1.7200 hc         1 CZT       0.057200
     53 H20         -6.2740     4.2710     0.9880 h1         1 CZT       0.040367
     54 H21         -6.2670     4.3690    -0.7870 h1         1 CZT       0.040367
     55 H22         -7.7570     3.9460     0.0740 h1         1 CZT       0.040367
     56 H24         -1.9060     3.0070     0.0750 ha         1 CZT       0.130000
     57 H27          4.3540    -0.5970     1.3040 ho         1 CZT       0.467000
     58 H25          6.6640     1.7160     1.1020 h1         1 CZT       0.044450
     59 H26          7.2570     1.5670    -0.5590 h1         1 CZT       0.044450
     60 O03         -6.4220     2.4420    -0.0040 os         1 CZT      -0.319100
     61 C06         -1.2370     0.3430    -0.0690 ce         1 CZT       0.427800
     62 H32          9.6660     1.3980     0.1690 hc         1 CZT       0.045700
     63 H09         -1.2000    -0.7470    -0.0910 h4         1 CZT       0.003800
@<TRIPOS>BOND
     1     1    19 1   
     2     1    20 1   
     3     1    22 1   
     4     1    28 1   
     5     2    21 1   
     6     2    22 1   
     7     2    29 1   
     8     2    30 1   
     9     3     4 ar  
    10     3    18 ar  
    11     3    60 1   
    12     4    24 ar  
    13     4    31 1   
    14     5     6 1   
    15     5    26 1   
    16     5    27 1   
    17     5    32 1   
    18     6    33 1   
    19     6    34 1   
    20     6    62 1   
    21     7    11 1   
    22     7    12 1   
    23     7    35 1   
    24     7    36 1   
    25     8     9 1   
    26     8    37 1   
    27     8    38 1   
    28     8    39 1   
    29     9    10 1   
    30     9    27 1   
    31     9    40 1   
    32    10    11 1   
    33    10    41 1   
    34    10    42 1   
    35    11    26 1   
    36    12    13 1   
    37    12    25 1   
    38    12    43 1   
    39    13    14 1   
    40    13    44 1   
    41    13    45 1   
    42    14    15 1   
    43    15    61 2   
    44    16    17 ar  
    45    16    24 ar  
    46    16    61 1   
    47    17    18 ar  
    48    17    46 1   
    49    18    19 1   
    50    20    21 1   
    51    20    47 1   
    52    20    48 1   
    53    21    49 1   
    54    21    50 1   
    55    22    51 1   
    56    22    52 1   
    57    23    53 1   
    58    23    54 1   
    59    23    55 1   
    60    23    60 1   
    61    24    56 1   
    62    25    57 1   
    63    26    58 1   
    64    26    59 1   
    65    61    63 1   
@<TRIPOS>SUBSTRUCTURE
     1 CZT         1 TEMP              0 ****  ****    0 ROOT
