@<TRIPOS>MOLECULE
CZX
   31    32     1     0     0
SMALL
bcc


@<TRIPOS>ATOM
      1 C10        106.9130   105.4950   143.8140 c3         1 CZX      -0.048800
      2 C13        111.4330   106.3010   142.5000 cc         1 CZX      -0.258600
      3 C15        112.1490   107.5620   140.8650 cc         1 CZX       0.386400
      4 C03        108.9860   107.0830   142.4740 c3         1 CZX      -0.031700
      5 C04        108.0990   106.1340   141.6830 ca         1 CZX      -0.071300
      6 C05        107.1010   105.3840   142.3230 ca         1 CZX      -0.071300
      7 C06        110.4120   107.0710   142.0120 cd         1 CZX       0.313600
      8 C07        108.3910   108.4930   142.4450 c3         1 CZX      -0.076100
      9 C08        106.2840   104.5290   141.5660 ca         1 CZX      -0.078300
     10 C09        108.2480   106.0460   140.3010 ca         1 CZX      -0.115000
     11 C11        106.4620   104.4550   140.1880 ca         1 CZX      -0.130000
     12 C12        107.4330   105.2130   139.5530 ca         1 CZX      -0.133000
     13 C14        105.2170   103.6840   142.2090 c3         1 CZX      -0.044800
     14 N01        110.8790   107.8560   140.9930 nd         1 CZX      -0.676000
     15 N02        112.5290   106.6270   141.7540 na         1 CZX      -0.300900
     16 H1         107.7650   105.0820   144.3590 hc         1 CZX       0.039367
     17 H2         106.8090   106.5330   144.1330 hc         1 CZX       0.039367
     18 H3         106.0280   104.9660   144.1590 hc         1 CZX       0.039367
     19 H5         112.8340   107.9990   140.1540 h5         1 CZX       0.054100
     20 H6         109.0030   106.7500   143.5140 hc         1 CZX       0.049700
     21 H7         108.9790   109.1820   143.0520 hc         1 CZX       0.039700
     22 H8         108.3640   108.8780   141.4260 hc         1 CZX       0.039700
     23 H9         107.3710   108.4890   142.8300 hc         1 CZX       0.039700
     24 H10        109.0110   106.6360   139.8080 ha         1 CZX       0.149000
     25 H11        105.8320   103.7940   139.6050 ha         1 CZX       0.125000
     26 H12        107.5580   105.1500   138.4790 ha         1 CZX       0.129000
     27 H13        105.6310   103.0070   142.9590 hc         1 CZX       0.038700
     28 H14        104.4610   104.2910   142.7110 hc         1 CZX       0.038700
     29 H15        104.7040   103.0750   141.4670 hc         1 CZX       0.038700
     30 H17        113.4550   106.2450   141.8590 hn         1 CZX       0.300700
     31 H4         111.4680   105.5700   143.2910 h4         1 CZX       0.175000
@<TRIPOS>BOND
     1     1     6 1   
     2     1    16 1   
     3     1    17 1   
     4     1    18 1   
     5     2     7 2   
     6     2    15 1   
     7     2    31 1   
     8     3    14 2   
     9     3    15 1   
    10     3    19 1   
    11     4     5 1   
    12     4     7 1   
    13     4     8 1   
    14     4    20 1   
    15     5     6 ar  
    16     5    10 ar  
    17     6     9 ar  
    18     7    14 1   
    19     8    21 1   
    20     8    22 1   
    21     8    23 1   
    22     9    11 ar  
    23     9    13 1   
    24    10    12 ar  
    25    10    24 1   
    26    11    12 ar  
    27    11    25 1   
    28    12    26 1   
    29    13    27 1   
    30    13    28 1   
    31    13    29 1   
    32    15    30 1   
@<TRIPOS>SUBSTRUCTURE
     1 CZX         1 TEMP              0 ****  ****    0 ROOT
