@<TRIPOS>MOLECULE
CZX
   31    32     1     0     0
SMALL
No Charge or Current Charge


@<TRIPOS>ATOM
      1 C10        106.9210   105.4820   143.8760 c3         1 CZX      -0.048800
      2 C13        111.3270   106.1620   142.4170 cc         1 CZX      -0.226000
      3 C15        112.2710   107.5870   140.9880 cc         1 CZX       0.386400
      4 C03        108.9650   107.2010   142.4340 c3         1 CZX      -0.031700
      5 C04        108.0490   106.2130   141.6860 ca         1 CZX      -0.071300
      6 C05        107.0940   105.3890   142.3520 ca         1 CZX      -0.071300
      7 C06        110.4190   107.1030   142.0030 cd         1 CZX       0.248300
      8 C07        108.3970   108.6380   142.3510 c3         1 CZX      -0.076100
      9 C08        106.3040   104.4830   141.5880 ca         1 CZX      -0.078300
     10 C09        108.1650   106.1400   140.2820 ca         1 CZX      -0.097000
     11 C11        106.4540   104.4280   140.1900 ca         1 CZX      -0.112000
     12 C12        107.3740   105.2560   139.5390 ca         1 CZX      -0.115000
     13 C14        105.2820   103.5480   142.2350 c3         1 CZX      -0.044800
     14 N01        111.0150   107.9850   141.1180 nd         1 CZX      -0.676000
     15 N02        112.5020   106.4780   141.7640 na         1 CZX      -0.300500
     16 H1         107.7810   105.0400   144.3920 hc         1 CZX       0.039367
     17 H2         106.8310   106.5250   144.2000 hc         1 CZX       0.039367
     18 H3         106.0250   104.9780   144.2510 hc         1 CZX       0.039367
     19 H5         113.0370   108.0420   140.3710 h5         1 CZX       0.054100
     20 H6         108.9810   106.9560   143.5010 hc         1 CZX       0.049700
     21 H7         109.0220   109.3360   142.9210 hc         1 CZX       0.039700
     22 H8         108.3510   108.9840   141.3110 hc         1 CZX       0.039700
     23 H9         107.3820   108.6740   142.7650 hc         1 CZX       0.039700
     24 H10        108.8740   106.7760   139.7580 ha         1 CZX       0.131000
     25 H11        105.8510   103.7420   139.6000 ha         1 CZX       0.107000
     26 H12        107.4790   105.2100   138.4570 ha         1 CZX       0.111000
     27 H13        105.7440   102.9380   143.0200 hc         1 CZX       0.038700
     28 H14        104.4560   104.1140   142.6810 hc         1 CZX       0.038700
     29 H15        104.8440   102.8540   141.5070 hc         1 CZX       0.038700
     30 H17        113.3890   105.9920   141.8310 hn         1 CZX       0.351000
     31 H4         111.2220   105.3260   143.0980 h4         1 CZX       0.157000
@<TRIPOS>BOND
     1     1     6 1   
     2     1    16 1   
     3     1    17 1   
     4     1    18 1   
     5     2     7 2   
     6     2    15 1   
     7     2    31 1   
     8     3    14 2   
     9     3    15 1   
    10     3    19 1   
    11     4     5 1   
    12     4     7 1   
    13     4     8 1   
    14     4    20 1   
    15     5     6 ar  
    16     5    10 ar  
    17     6     9 ar  
    18     7    14 1   
    19     8    21 1   
    20     8    22 1   
    21     8    23 1   
    22     9    11 ar  
    23     9    13 1   
    24    10    12 ar  
    25    10    24 1   
    26    11    12 ar  
    27    11    25 1   
    28    12    26 1   
    29    13    27 1   
    30    13    28 1   
    31    13    29 1   
    32    15    30 1   
@<TRIPOS>SUBSTRUCTURE
     1 CZX         1 TEMP              0 ****  ****    0 ROOT
