@<TRIPOS>MOLECULE
CZY
   37    39     1     0     0
SMALL
No Charge or Current Charge


@<TRIPOS>ATOM
      1 C2          -2.7960    -0.9920     0.0050 ca         1 CZY      -0.400900
      2 C3          -2.0340     0.1370    -0.2600 ca         1 CZY       0.470900
      3 N4          -4.5590    -2.1790     0.4450 na         1 CZY      -0.012100
      4 C5           1.6820     0.7040    -0.4940 ca         1 CZY      -0.074300
      5 C7           3.6850     0.9380     0.8900 ca         1 CZY      -0.059500
      6 C9           3.6380    -0.7100    -0.8950 ca         1 CZY      -0.059500
      7 C10          2.3270    -0.3200    -1.2190 ca         1 CZY      -0.106000
      8 C12          0.0860     1.5210    -2.3160 c3         1 CZY      -0.108100
      9 C13         -2.4630    -2.3850     0.1060 cc         1 CZY       0.390800
     10 C           -3.9600     1.3690    -0.0690 ca         1 CZY       0.297000
     11 N1          -4.7620     0.3080     0.1920 nb         1 CZY      -0.217000
     12 C1          -4.1360    -0.8820     0.2230 ca         1 CZY       0.164500
     13 C14         -5.9600    -2.5300     0.7270 c3         1 CZY       0.079900
     14 N3          -3.5430    -3.1300     0.3780 nd         1 CZY      -0.521100
     15 N           -2.6250     1.3460    -0.2960 nb         1 CZY      -0.303000
     16 N2          -0.6720     0.0510    -0.4810 nu         1 CZY      -0.910100
     17 C4           0.2530     1.1370    -0.8310 c3         1 CZY       0.282800
     18 C8           4.3290    -0.0890     0.1670 ca         1 CZY      -0.190300
     19 F2           6.0030    -1.8080     0.2340 f          1 CZY      -0.112333
     20 F1           6.6670     0.2200    -0.1800 f          1 CZY      -0.112333
     21 F            6.0450    -0.3370     1.8270 f          1 CZY      -0.112333
     22 C6           2.3740     1.3260     0.5640 ca         1 CZY      -0.106000
     23 H1           4.1970     1.4420     1.7070 ha         1 CZY       0.133000
     24 H2           4.1130    -1.4980    -1.4770 ha         1 CZY       0.133000
     25 H3           1.8140    -0.8210    -2.0370 ha         1 CZY       0.123500
     26 H4          -0.9160     1.9240    -2.5030 hc         1 CZY       0.050033
     27 H5           0.8150     2.2920    -2.5920 hc         1 CZY       0.050033
     28 H6           0.2330     0.6570    -2.9730 hc         1 CZY       0.050033
     29 H7          -1.5160    -2.9000     0.0000 h4         1 CZY       0.048800
     30 H8          -6.0550    -3.6140     0.8690 h1         1 CZY       0.062367
     31 H9          -6.2900    -2.0170     1.6390 h1         1 CZY       0.062367
     32 H10         -6.5930    -2.2190    -0.1130 h1         1 CZY       0.062367
     33 H11         -0.2620    -0.8700    -0.3540 hn         1 CZY       0.501000
     34 H12          0.0220     2.0270    -0.2260 h1         1 CZY       0.094700
     35 H13          1.8960     2.1160     1.1390 ha         1 CZY       0.123500
     36 Cl          -4.7350     2.9440    -0.1180 cl         1 CZY      -0.136000
     37 C11          5.7630    -0.5060     0.5150 c3         1 CZY       0.357300
@<TRIPOS>BOND
     1     1     2 ar  
     2     1     9 1   
     3     1    12 ar  
     4     2    15 ar  
     5     2    16 1   
     6     3    12 1   
     7     3    13 1   
     8     3    14 1   
     9     4     7 ar  
    10     4    17 1   
    11     4    22 ar  
    12     5    18 ar  
    13     5    22 ar  
    14     5    23 1   
    15     6     7 ar  
    16     6    18 ar  
    17     6    24 1   
    18     7    25 1   
    19     8    17 1   
    20     8    26 1   
    21     8    27 1   
    22     8    28 1   
    23     9    14 2   
    24     9    29 1   
    25    10    11 ar  
    26    10    15 ar  
    27    10    36 1   
    28    11    12 ar  
    29    13    30 1   
    30    13    31 1   
    31    13    32 1   
    32    16    17 1   
    33    16    33 1   
    34    17    34 1   
    35    18    37 1   
    36    19    37 1   
    37    20    37 1   
    38    21    37 1   
    39    22    35 1   
@<TRIPOS>SUBSTRUCTURE
     1 CZY         1 TEMP              0 ****  ****    0 ROOT
