@<TRIPOS>MOLECULE
CZY
   37    39     1     0     0
SMALL
abcg2


@<TRIPOS>ATOM
      1 C2          -2.7270    -1.1610    -0.0740 ca         1 CZY      -0.400900
      2 C3          -1.9000    -0.0300    -0.2660 ca         1 CZY       0.470900
      3 N4          -4.6660    -2.0800     0.4000 na         1 CZY      -0.012100
      4 C5           1.6740     0.6460    -0.4990 ca         1 CZY      -0.074300
      5 C7           3.6230     0.9900     0.8850 ca         1 CZY      -0.059500
      6 C9           3.6680    -0.6700    -0.8540 ca         1 CZY      -0.059500
      7 C10          2.3650    -0.3440    -1.1930 ca         1 CZY      -0.106000
      8 C12          0.1260     1.4640    -2.3160 c3         1 CZY      -0.108100
      9 C13         -2.6540    -2.5710    -0.1230 cc         1 CZY       0.390800
     10 C           -3.7130     1.2620     0.2210 ca         1 CZY       0.297000
     11 N1          -4.5930     0.3230     0.4280 nb         1 CZY      -0.217000
     12 C1          -4.0520    -0.8940     0.2680 ca         1 CZY       0.164500
     13 C14         -6.0470    -2.3330     0.7250 c3         1 CZY       0.079900
     14 N3          -3.8200    -3.0960     0.1600 nd         1 CZY      -0.521100
     15 N           -2.4370     1.1840    -0.1120 nb         1 CZY      -0.303000
     16 N2          -0.6120    -0.1320    -0.5850 nu         1 CZY      -0.910100
     17 C4           0.2540     1.0060    -0.8660 c3         1 CZY       0.282800
     18 C8           4.3000    -0.0030     0.1900 ca         1 CZY      -0.190300
     19 F2           6.0620    -1.5670     0.2200 f          1 CZY      -0.112333
     20 F1           6.5710     0.4880    -0.1470 f          1 CZY      -0.112333
     21 F            5.9880    -0.1360     1.8250 f          1 CZY      -0.112333
     22 C6           2.3170     1.3040     0.5420 ca         1 CZY      -0.106000
     23 H1           4.0950     1.5240     1.6990 ha         1 CZY       0.133000
     24 H2           4.1780    -1.4440    -1.4120 ha         1 CZY       0.133000
     25 H3           1.8960    -0.8740    -2.0130 ha         1 CZY       0.123500
     26 H4          -0.9000     1.7620    -2.5280 hc         1 CZY       0.050033
     27 H5           0.7750     2.3200    -2.5020 hc         1 CZY       0.050033
     28 H6           0.4020     0.6720    -3.0140 hc         1 CZY       0.050033
     29 H7          -1.8100    -3.2040    -0.3500 h4         1 CZY       0.048800
     30 H8          -6.1130    -3.0010     1.5820 h1         1 CZY       0.062367
     31 H9          -6.5240    -1.3900     0.9740 h1         1 CZY       0.062367
     32 H10         -6.5650    -2.7800    -0.1220 h1         1 CZY       0.062367
     33 H11         -0.2450    -1.0560    -0.7550 hn         1 CZY       0.501000
     34 H12         -0.0700     1.8210    -0.2180 h1         1 CZY       0.094700
     35 H13          1.7960     2.0750     1.0950 ha         1 CZY       0.123500
     36 CL          -4.3040     2.8850     0.4040 cl         1 CZY      -0.136000
     37 C11          5.7260    -0.3090     0.5250 c3         1 CZY       0.357300
@<TRIPOS>BOND
     1     1     2 ar  
     2     1     9 1   
     3     1    12 ar  
     4     2    15 ar  
     5     2    16 1   
     6     3    12 1   
     7     3    13 1   
     8     3    14 1   
     9     4     7 ar  
    10     4    17 1   
    11     4    22 ar  
    12     5    18 ar  
    13     5    22 ar  
    14     5    23 1   
    15     6     7 ar  
    16     6    18 ar  
    17     6    24 1   
    18     7    25 1   
    19     8    17 1   
    20     8    26 1   
    21     8    27 1   
    22     8    28 1   
    23     9    14 2   
    24     9    29 1   
    25    10    11 ar  
    26    10    15 ar  
    27    10    36 1   
    28    11    12 ar  
    29    13    30 1   
    30    13    31 1   
    31    13    32 1   
    32    16    17 1   
    33    16    33 1   
    34    17    34 1   
    35    18    37 1   
    36    19    37 1   
    37    20    37 1   
    38    21    37 1   
    39    22    35 1   
@<TRIPOS>SUBSTRUCTURE
     1 CZY         1 TEMP              0 ****  ****    0 ROOT
