@<TRIPOS>MOLECULE
COM
   12    11     1     0     0
SMALL
No Charge or Current Charge


@<TRIPOS>ATOM
      1 C1          79.4050    65.5630    67.6360 c3         1 COM       0.166600
      2 C2          78.8060    64.5580    66.6460 c3         1 COM      -0.357400
      3 S1          78.1060    66.3020    68.7300 sh         1 COM      -0.536800
      4 S2          80.0640    63.8400    65.5840 s6         1 COM       1.344600
      5 O1S         80.6350    64.9980    64.8830 o          1 COM      -0.699533
      6 O2S         80.9810    63.1780    66.5230 o          1 COM      -0.699533
      7 O3S         79.3030    62.9210    64.7250 o          1 COM      -0.699533
      8 H11         80.1530    65.0690    68.2720 h1         1 COM       0.065200
      9 H12         79.9040    66.3780    67.0930 h1         1 COM       0.065200
     10 H21         78.3310    63.7270    67.1760 h1         1 COM       0.080200
     11 H22         78.0800    65.0450    65.9890 h1         1 COM       0.080200
     12 HS1         78.9490    67.0970    69.4360 hs         1 COM       0.190800
@<TRIPOS>BOND
     1     1     2 1   
     2     1     3 1   
     3     1     8 1   
     4     1     9 1   
     5     2     4 1   
     6     2    10 1   
     7     2    11 1   
     8     3    12 1   
     9     4     5 1   
    10     4     6 1   
    11     4     7 1   
@<TRIPOS>SUBSTRUCTURE
     1 COM         1 TEMP              0 ****  ****    0 ROOT
