@<TRIPOS>MOLECULE
COM
   12    11     1     0     0
SMALL
abcg2


@<TRIPOS>ATOM
      1 C1          79.4320    65.5730    67.6460 c3         1 COM       0.166600
      2 C2          78.8150    64.5820    66.6760 c3         1 COM      -0.357400
      3 S1          78.1050    66.2580    68.7170 sh         1 COM      -0.536800
      4 S2          80.0480    63.8410    65.5880 s6         1 COM       1.344600
      5 O1S         80.6730    64.9540    64.8610 o          1 COM      -0.699533
      6 O2S         80.9880    63.1350    66.4690 o          1 COM      -0.699533
      7 O3S         79.2890    62.9380    64.7150 o          1 COM      -0.699533
      8 H11         80.1720    65.0830    68.2740 h1         1 COM       0.065200
      9 H12         79.9030    66.3910    67.1060 h1         1 COM       0.065200
     10 H21         78.3350    63.7540    67.2000 h1         1 COM       0.080200
     11 H22         78.0800    65.0600    66.0280 h1         1 COM       0.080200
     12 HS1         78.8770    67.1090    69.4130 hs         1 COM       0.190800
@<TRIPOS>BOND
     1     1     2 1   
     2     1     3 1   
     3     1     8 1   
     4     1     9 1   
     5     2     4 1   
     6     2    10 1   
     7     2    11 1   
     8     3    12 1   
     9     4     5 1   
    10     4     6 1   
    11     4     7 1   
@<TRIPOS>SUBSTRUCTURE
     1 COM         1 TEMP              0 ****  ****    0 ROOT
