@<TRIPOS>MOLECULE
700
   49    52     1     0     0
SMALL
bcc


@<TRIPOS>ATOM
      1 C10          1.0030     1.3080     2.1220 c3         1 700      -0.048100
      2 C11          2.2590     1.1210     1.3220 ca         1 700      -0.070300
      3 C12          2.4170     1.7490     0.0900 ca         1 700      -0.120000
      4 C13          3.5530     1.5300    -0.6780 ca         1 700      -0.127500
      5 C14          4.5510     0.6810    -0.2190 ca         1 700      -0.133000
      6 C15          4.4050     0.0540     1.0130 ca         1 700      -0.127500
      7 C16          3.2660     0.2720     1.7740 ca         1 700      -0.120000
      8 C17         -0.0130     0.1820     1.8370 c3         1 700       0.027700
      9 C18         -1.2770     0.4310     2.6510 c          1 700       0.659100
     10 O2          -2.2000     1.1060     2.2060 o          1 700      -0.658100
     11 N3          -1.2770    -0.0900     3.8690 nj         1 700      -0.475800
     12 C19         -2.2760    -0.0210     4.9260 cy         1 700       0.110500
     13 C20         -1.3960    -0.9790     5.7540 cy         1 700      -0.215700
     14 C21         -0.9280    -0.5070     7.1320 c          1 700       0.939600
     15 O3          -1.7600     0.1230     7.8110 o          1 700      -0.828300
     16 O4           0.2290    -0.8290     7.4600 o          1 700      -0.828300
     17 C22         -0.3640    -0.9570     4.6100 cy         1 700       0.110500
     18 N1          -0.3530     0.1370     0.4400 ns         1 700      -0.560900
     19 C9           0.1270    -0.7890    -0.4120 c          1 700       0.703300
     20 C8          -0.2220    -0.5860    -1.8340 cc         1 700      -0.123300
     21 C7          -0.2450    -1.5440    -2.8100 cd         1 700      -0.122200
     22 C6          -0.6510    -0.8990    -4.0110 ca         1 700      -0.108800
     23 C1          -0.8470     0.4640    -3.6980 ca         1 700      -0.041200
     24 C2          -1.2310     1.3970    -4.6600 ca         1 700      -0.137000
     25 C3          -1.4320     0.9440    -5.9460 ca         1 700      -0.104000
     26 C4          -1.2500    -0.4130    -6.2590 ca         1 700      -0.007600
     27 CL1         -1.5270    -0.9210    -7.8990 cl         1 700      -0.134400
     28 C5          -0.8640    -1.3440    -5.3230 ca         1 700      -0.061000
     29 N2          -0.5930     0.6220    -2.3700 na         1 700      -0.158400
     30 O1           0.7950    -1.7520    -0.0730 o          1 700      -0.584100
     31 H101         0.5390     2.2680     1.8800 hc         1 700       0.066700
     32 H102         1.2290     1.3210     3.1910 hc         1 700       0.066700
     33 H121         1.6480     2.4220    -0.2710 ha         1 700       0.128000
     34 H131         3.6600     2.0270    -1.6340 ha         1 700       0.124000
     35 H141         5.4380     0.5120    -0.8150 ha         1 700       0.122000
     36 H151         5.1810    -0.6050     1.3810 ha         1 700       0.124000
     37 H161         3.1590    -0.2230     2.7320 ha         1 700       0.128000
     38 H171         0.4320    -0.7760     2.1080 h1         1 700       0.097700
     39 H191        -3.2550    -0.3960     4.6240 h1         1 700       0.050950
     40 H192        -2.3950     0.9770     5.3500 h1         1 700       0.050950
     41 H201        -1.8570    -1.9640     5.8660 hc         1 700       0.050700
     42 H221         0.5860    -0.4840     4.8710 h1         1 700       0.050950
     43 H222        -0.1630    -1.9110     4.1190 h1         1 700       0.050950
     44 HN1         -1.0220     0.8220     0.1230 hn         1 700       0.327500
     45 H7          -0.0220    -2.5900    -2.6750 ha         1 700       0.172000
     46 H2          -1.3730     2.4410    -4.4140 ha         1 700       0.137000
     47 H3          -1.7340     1.6370    -6.7200 ha         1 700       0.140000
     48 H5          -0.7260    -2.3840    -5.5880 ha         1 700       0.148000
     49 HN2         -0.5530     1.5130    -1.9020 hn         1 700       0.304700
@<TRIPOS>BOND
     1     1     2 1   
     2     1     8 1   
     3     1    31 1   
     4     1    32 1   
     5     2     3 ar  
     6     2     7 ar  
     7     3     4 ar  
     8     3    33 1   
     9     4     5 ar  
    10     4    34 1   
    11     5     6 ar  
    12     5    35 1   
    13     6     7 ar  
    14     6    36 1   
    15     7    37 1   
    16     8     9 1   
    17     8    18 1   
    18     8    38 1   
    19     9    10 2   
    20     9    11 1   
    21    11    12 1   
    22    11    17 1   
    23    12    13 1   
    24    12    39 1   
    25    12    40 1   
    26    13    14 1   
    27    13    17 1   
    28    13    41 1   
    29    14    15 1   
    30    14    16 1   
    31    17    42 1   
    32    17    43 1   
    33    18    19 1   
    34    18    44 1   
    35    19    20 1   
    36    19    30 2   
    37    20    21 2   
    38    20    29 1   
    39    21    22 1   
    40    21    45 1   
    41    22    23 ar  
    42    22    28 ar  
    43    23    24 ar  
    44    23    29 1   
    45    24    25 ar  
    46    24    46 1   
    47    25    26 ar  
    48    25    47 1   
    49    26    27 1   
    50    26    28 ar  
    51    28    48 1   
    52    29    49 1   
@<TRIPOS>SUBSTRUCTURE
     1 700         1 TEMP              0 ****  ****    0 ROOT
