@<TRIPOS>MOLECULE
700
   49    52     1     0     0
SMALL
No Charge or Current Charge


@<TRIPOS>ATOM
      1 C10          1.2070     1.0130     2.2920 c3         1 700      -0.048100
      2 C11          2.4340     1.0860     1.3910 ca         1 700      -0.070300
      3 C12          2.4550     1.9560     0.2820 ca         1 700      -0.102000
      4 C13          3.5850     2.0160    -0.5510 ca         1 700      -0.109500
      5 C14          4.7030     1.2090    -0.2800 ca         1 700      -0.115000
      6 C15          4.6890     0.3420     0.8250 ca         1 700      -0.109500
      7 C16          3.5580     0.2800     1.6580 ca         1 700      -0.102000
      8 C17          0.2490    -0.1620     1.9480 c3         1 700       0.027700
      9 C18         -1.0090    -0.1700     2.8730 c          1 700       0.592100
     10 O2          -2.1120     0.0020     2.3460 o          1 700      -0.658100
     11 N3          -0.6360    -0.3740     4.2440 nj         1 700      -0.408800
     12 C19         -1.3790     0.7550     4.9140 cy         1 700       0.110500
     13 C20         -2.2270    -0.3230     5.6950 cy         1 700      -0.215700
     14 C21         -1.2160    -0.5780     6.9080 c          1 700       0.729000
     15 O3          -0.7660     0.3400     7.5800 o          1 700      -0.723000
     16 O4          -1.0110    -1.6980     7.3590 o          1 700      -0.723000
     17 C22         -1.6550    -1.3940     4.6860 cy         1 700       0.110500
     18 N1          -0.1360    -0.1460     0.5150 ns         1 700      -0.493900
     19 C9           0.4980    -0.8480    -0.4870 c          1 700       0.636300
     20 C8          -0.0540    -0.5880    -1.8450 cc         1 700      -0.123300
     21 C7           0.4250    -1.1870    -3.0070 cd         1 700      -0.172200
     22 C6          -0.3090    -0.7280    -4.1570 ca         1 700      -0.108800
     23 C1          -1.2340     0.1540    -3.6760 ca         1 700      -0.041200
     24 C2          -2.1350     0.8060    -4.5290 ca         1 700      -0.119000
     25 C3          -2.0570     0.5220    -5.9110 ca         1 700      -0.086000
     26 C4          -1.0940    -0.3940    -6.4020 ca         1 700       0.084000
     27 Cl1         -1.0140    -0.7340    -8.1260 cl         1 700      -0.226000
     28 C5          -0.2000    -1.0360    -5.5190 ca         1 700      -0.043000
     29 N2          -1.1030     0.2560    -2.3000 na         1 700      -0.208700
     30 O1           1.4210    -1.6200    -0.2650 o          1 700      -0.584100
     31 H101         0.6450     1.9530     2.2340 hc         1 700       0.066700
     32 H102         1.5300     0.9230     3.3370 hc         1 700       0.066700
     33 H121         1.5930     2.5810     0.0620 ha         1 700       0.110000
     34 H131         3.5940     2.6870    -1.4080 ha         1 700       0.106000
     35 H141         5.5780     1.2560    -0.9250 ha         1 700       0.104000
     36 H151         5.5540    -0.2840     1.0360 ha         1 700       0.106000
     37 H161         3.5540    -0.3970     2.5090 ha         1 700       0.110000
     38 H171         0.7780    -1.1010     2.1580 h1         1 700       0.097700
     39 H191        -1.9930     1.3950     4.2680 h1         1 700       0.050950
     40 H192        -0.7190     1.4090     5.4920 h1         1 700       0.050950
     41 H201        -3.2930    -0.2090     5.9130 hc         1 700       0.050700
     42 H221        -1.1950    -2.2960     5.1010 h1         1 700       0.050950
     43 H222        -2.3910    -1.7140     3.9390 h1         1 700       0.050950
     44 HN1         -0.9390     0.4090     0.2500 hn         1 700       0.327500
     45 H7           1.2440    -1.9020    -3.0330 ha         1 700       0.222000
     46 H2          -2.8700     1.5080    -4.1410 ha         1 700       0.119000
     47 H3          -2.7400     1.0090    -6.6030 ha         1 700       0.122000
     48 H5           0.5430    -1.7410    -5.8830 ha         1 700       0.130000
     49 HN2         -1.6790     0.8540    -1.7170 hn         1 700       0.355000
@<TRIPOS>BOND
     1     1     2 1   
     2     1     8 1   
     3     1    31 1   
     4     1    32 1   
     5     2     3 ar  
     6     2     7 ar  
     7     3     4 ar  
     8     3    33 1   
     9     4     5 ar  
    10     4    34 1   
    11     5     6 ar  
    12     5    35 1   
    13     6     7 ar  
    14     6    36 1   
    15     7    37 1   
    16     8     9 1   
    17     8    18 1   
    18     8    38 1   
    19     9    10 2   
    20     9    11 1   
    21    11    12 1   
    22    11    17 1   
    23    12    13 1   
    24    12    39 1   
    25    12    40 1   
    26    13    14 1   
    27    13    17 1   
    28    13    41 1   
    29    14    15 1   
    30    14    16 1   
    31    17    42 1   
    32    17    43 1   
    33    18    19 1   
    34    18    44 1   
    35    19    20 1   
    36    19    30 2   
    37    20    21 2   
    38    20    29 1   
    39    21    22 1   
    40    21    45 1   
    41    22    23 ar  
    42    22    28 ar  
    43    23    24 ar  
    44    23    29 1   
    45    24    25 ar  
    46    24    46 1   
    47    25    26 ar  
    48    25    47 1   
    49    26    27 1   
    50    26    28 ar  
    51    28    48 1   
    52    29    49 1   
@<TRIPOS>SUBSTRUCTURE
     1 700         1 TEMP              0 ****  ****    0 ROOT
