@<TRIPOS>MOLECULE
701
   53    55     1     0     0
SMALL
No Charge or Current Charge


@<TRIPOS>ATOM
      1 Cl1          8.3710    26.3100    49.0530 cl         1 701      -0.136000
      2 C1           8.4890    24.5780    49.0710 cc         1 701      -0.014000
      3 C2           7.8850    23.7270    48.1870 cd         1 701      -0.132000
      4 C3           8.1580    22.3580    48.4590 cd         1 701      -0.086000
      5 C4           8.9790    22.1550    49.5470 cc         1 701      -0.221800
      6 C9           9.3930    20.8800    50.1280 ce         1 701       0.130600
      7 C8           9.4780    20.8580    51.6490 c3         1 701      -0.100900
      8 S1           9.9600    18.1510    49.7820 sy         1 701       1.182200
      9 O2          10.1440    17.3470    48.5730 o          1 701      -0.539000
     10 O1          10.9100    18.1230    50.8940 o          1 701      -0.539000
     11 N1           8.4910    17.7130    50.4330 n7         1 701      -0.883300
     12 C12          7.4480    17.0110    49.6070 c5         1 701       0.156500
     13 C13          6.2710    16.7270    50.5890 c5         1 701      -0.094400
     14 C14          5.0310    16.6820    49.6540 c5         1 701       0.095000
     15 C15          6.7840    17.8360    48.4550 c          1 701       0.523000
     16 O3           7.2970    18.5550    47.6070 o          1 701      -0.567000
     17 N2           5.4060    17.6580    48.6150 n          1 701      -0.409800
     18 C16          4.4240    18.3580    47.7350 c3         1 701       0.044700
     19 C17          3.8580    17.3760    46.6810 c3         1 701      -0.095100
     20 C18          3.3040    19.1170    48.5230 c          1 701       0.591100
     21 O4           2.1270    18.7840    48.4290 o          1 701      -0.600100
     22 N3           3.6580    20.2170    49.3520 n          1 701      -0.411800
     23 C19          5.0840    20.5160    49.7170 c6         1 701       0.061000
     24 C20          5.3270    21.8910    50.3910 c6         1 701       0.134100
     25 O5           4.3380    22.1430    51.4020 os         1 701      -0.451000
     26 C22          3.0110    22.2140    50.8520 c6         1 701       0.134100
     27 C23          2.6100    20.8600    50.2130 c6         1 701       0.061000
     28 S6           9.4260    23.7070    50.2760 ss         1 701       0.242000
     29 C6           9.5700    19.7910    49.3300 cf         1 701      -0.436100
     30 H2           7.2570    24.0630    47.3680 ha         1 701       0.151000
     31 H3           7.7470    21.5470    47.8640 ha         1 701       0.160000
     32 H8C1        10.4870    21.1210    51.9850 hc         1 701       0.068367
     33 H8C2         8.7800    21.5710    52.1050 hc         1 701       0.068367
     34 H8C3         9.2340    19.8820    52.0800 hc         1 701       0.068367
     35 H6           9.4650    19.8530    48.2470 h4         1 701       0.243000
     36 H1           8.1390    18.6310    50.6930 hn         1 701       0.476000
     37 H12          7.8190    16.0750    49.1650 h1         1 701       0.118700
     38 H131         6.4060    15.7980    51.1540 hc         1 701       0.069700
     39 H132         6.1490    17.5330    51.3220 hc         1 701       0.069700
     40 H141         4.8950    15.6850    49.2120 h1         1 701       0.062700
     41 H142         4.1070    16.9580    50.1800 h1         1 701       0.062700
     42 H16          4.9490    19.1440    47.1790 h1         1 701       0.089700
     43 H171         3.1950    17.8980    45.9810 hc         1 701       0.054367
     44 H172         4.6730    16.9240    46.1030 hc         1 701       0.054367
     45 H173         3.2900    16.5700    47.1600 hc         1 701       0.054367
     46 H191         5.4360    19.7340    50.4030 h1         1 701       0.064450
     47 H192         5.7140    20.4720    48.8190 h1         1 701       0.064450
     48 H231         1.6960    21.0180    49.6230 h1         1 701       0.064450
     49 H232         2.3510    20.1600    51.0200 h1         1 701       0.064450
     50 H201         6.3270    21.9120    50.8470 h1         1 701       0.058450
     51 H202         5.2850    22.6900    49.6370 h1         1 701       0.058450
     52 H221         2.3010    22.4770    51.6490 h1         1 701       0.058450
     53 H222         2.9780    23.0100    50.0930 h1         1 701       0.058450
@<TRIPOS>BOND
     1     1     2 1   
     2     2     3 2   
     3     2    28 1   
     4     3     4 1   
     5     3    30 1   
     6     4     5 2   
     7     4    31 1   
     8     5     6 1   
     9     5    28 1   
    10     6     7 1   
    11     6    29 2   
    12     7    32 1   
    13     7    33 1   
    14     7    34 1   
    15     8     9 2   
    16     8    10 2   
    17     8    11 1   
    18     8    29 1   
    19    11    12 1   
    20    11    36 1   
    21    12    13 1   
    22    12    15 1   
    23    12    37 1   
    24    13    14 1   
    25    13    38 1   
    26    13    39 1   
    27    14    17 1   
    28    14    40 1   
    29    14    41 1   
    30    15    16 2   
    31    15    17 1   
    32    17    18 1   
    33    18    19 1   
    34    18    20 1   
    35    18    42 1   
    36    19    43 1   
    37    19    44 1   
    38    19    45 1   
    39    20    21 2   
    40    20    22 1   
    41    22    23 1   
    42    22    27 1   
    43    23    24 1   
    44    23    46 1   
    45    23    47 1   
    46    24    25 1   
    47    24    50 1   
    48    24    51 1   
    49    25    26 1   
    50    26    27 1   
    51    26    52 1   
    52    26    53 1   
    53    27    48 1   
    54    27    49 1   
    55    29    35 1   
@<TRIPOS>SUBSTRUCTURE
     1 701         1 TEMP              0 ****  ****    0 ROOT
