@<TRIPOS>MOLECULE
701
   53    55     1     0     0
SMALL
abcg2


@<TRIPOS>ATOM
      1 CL1          8.1860    26.0850    48.6930 cl         1 701      -0.136000
      2 C1           8.4030    24.3800    48.7590 cc         1 701      -0.014000
      3 C2           8.1780    23.4850    47.7510 cd         1 701      -0.132000
      4 C3           8.4540    22.1590    48.1580 cd         1 701      -0.086000
      5 C4           8.8890    22.0540    49.4590 cc         1 701      -0.221800
      6 C9           9.2080    20.8430    50.2090 ce         1 701       0.130600
      7 C8           8.9980    20.8930    51.6950 c3         1 701      -0.100900
      8 S1           9.8060    18.1360    50.1250 sy         1 701       1.182200
      9 O2          10.3290    17.3460    49.0330 o          1 701      -0.539000
     10 O1          10.5270    18.1700    51.3790 o          1 701      -0.539000
     11 N1           8.3350    17.5020    50.4950 n7         1 701      -0.883300
     12 C12          7.4090    16.9520    49.5100 c5         1 701       0.156500
     13 C13          6.2300    16.2680    50.2150 c5         1 701      -0.094400
     14 C14          5.0000    16.6190    49.3680 c5         1 701       0.095000
     15 C15          6.7510    17.9940    48.5950 c          1 701       0.523000
     16 O3           7.3440    18.8460    47.9430 o          1 701      -0.567000
     17 N2           5.4180    17.8100    48.6300 n          1 701      -0.409800
     18 C16          4.4860    18.6340    47.8710 c3         1 701       0.044700
     19 C17          3.8160    17.8570    46.7460 c3         1 701      -0.095100
     20 C18          3.4570    19.2330    48.8510 c          1 701       0.591100
     21 O4           2.2880    18.8480    48.8310 o          1 701      -0.600100
     22 N3           3.9020    20.1510    49.7400 n          1 701      -0.411800
     23 C19          5.2620    20.6800    49.8440 c6         1 701       0.061000
     24 C20          5.2180    22.1980    49.9390 c6         1 701       0.134100
     25 O5           4.3840    22.6400    51.0050 os         1 701      -0.451000
     26 C22          3.0510    22.1640    50.8360 c6         1 701       0.134100
     27 C23          3.0100    20.6460    50.7880 c6         1 701       0.061000
     28 S6           8.9480    23.6260    50.2100 ss         1 701       0.242000
     29 C6           9.6040    19.7640    49.5130 cf         1 701      -0.436100
     30 H2           7.8160    23.7670    46.7730 ha         1 701       0.151000
     31 H3           8.2920    21.2960    47.5290 ha         1 701       0.160000
     32 H8C1         9.5750    21.7150    52.1280 hc         1 701       0.068367
     33 H8C2         7.9450    21.0900    51.9090 hc         1 701       0.068367
     34 H8C3         9.3010    19.9770    52.1900 hc         1 701       0.068367
     35 H6           9.7260    19.7930    48.4420 h4         1 701       0.243000
     36 H1           7.8910    17.9890    51.2660 hn         1 701       0.476000
     37 H12          7.9650    16.2610    48.8760 h1         1 701       0.118700
     38 H131         6.3710    15.1950    50.3140 hc         1 701       0.069700
     39 H132         6.1140    16.6900    51.2140 hc         1 701       0.069700
     40 H141         4.7410    15.8190    48.6720 h1         1 701       0.062700
     41 H142         4.1250    16.8360    49.9800 h1         1 701       0.062700
     42 H16          5.0820    19.4330    47.4360 h1         1 701       0.089700
     43 H171         3.1650    18.5170    46.1740 hc         1 701       0.054367
     44 H172         4.5820    17.4570    46.0810 hc         1 701       0.054367
     45 H173         3.2140    17.0350    47.1290 hc         1 701       0.054367
     46 H191         5.7390    20.2660    50.7390 h1         1 701       0.064450
     47 H192         5.8620    20.4040    48.9860 h1         1 701       0.064450
     48 H231         2.0020    20.2980    50.5850 h1         1 701       0.064450
     49 H232         3.3390    20.2380    51.7500 h1         1 701       0.064450
     50 H201         6.2150    22.5850    50.1400 h1         1 701       0.058450
     51 H202         4.8570    22.6160    48.9900 h1         1 701       0.058450
     52 H221         2.4740    22.5290    51.6860 h1         1 701       0.058450
     53 H222         2.6280    22.5770    49.9120 h1         1 701       0.058450
@<TRIPOS>BOND
     1     1     2 1   
     2     2     3 2   
     3     2    28 1   
     4     3     4 1   
     5     3    30 1   
     6     4     5 2   
     7     4    31 1   
     8     5     6 1   
     9     5    28 1   
    10     6     7 1   
    11     6    29 2   
    12     7    32 1   
    13     7    33 1   
    14     7    34 1   
    15     8     9 2   
    16     8    10 2   
    17     8    11 1   
    18     8    29 1   
    19    11    12 1   
    20    11    36 1   
    21    12    13 1   
    22    12    15 1   
    23    12    37 1   
    24    13    14 1   
    25    13    38 1   
    26    13    39 1   
    27    14    17 1   
    28    14    40 1   
    29    14    41 1   
    30    15    16 2   
    31    15    17 1   
    32    17    18 1   
    33    18    19 1   
    34    18    20 1   
    35    18    42 1   
    36    19    43 1   
    37    19    44 1   
    38    19    45 1   
    39    20    21 2   
    40    20    22 1   
    41    22    23 1   
    42    22    27 1   
    43    23    24 1   
    44    23    46 1   
    45    23    47 1   
    46    24    25 1   
    47    24    50 1   
    48    24    51 1   
    49    25    26 1   
    50    26    27 1   
    51    26    52 1   
    52    26    53 1   
    53    27    48 1   
    54    27    49 1   
    55    29    35 1   
@<TRIPOS>SUBSTRUCTURE
     1 701         1 TEMP              0 ****  ****    0 ROOT
