@<TRIPOS>MOLECULE
702
   54    56     1     0     0
SMALL
No Charge or Current Charge


@<TRIPOS>ATOM
      1 OAA          6.1460     1.0800    -0.1210 o          1 702      -0.746533
      2 OAB          5.4430    -0.4180     1.6930 o          1 702      -0.746533
      3 OAC          5.6380     1.9750     2.1400 o          1 702      -0.746533
      4 CAG         -2.6320     2.5260    -0.7940 ca         1 702      -0.109000
      5 CAH         -4.0210     2.3160    -0.8260 ca         1 702      -0.095500
      6 CAI         -1.8430     1.8500     0.1520 ca         1 702      -0.095500
      7 CAJ         -7.6100    -2.0610     0.7210 ca         1 702      -0.136000
      8 CAK         -7.0560    -3.1670     0.0580 ca         1 702      -0.127000
      9 CAL         -2.3860    -0.8390    -2.5190 ca         1 702      -0.090000
     10 CAM         -4.6200     1.4280     0.0850 ca         1 702      -0.118500
     11 CAN         -2.4420     0.9630     1.0620 ca         1 702      -0.118500
     12 CAO         -0.9940    -0.8400    -2.3290 ca         1 702      -0.133000
     13 CAP         -3.2270    -1.4250    -1.5590 ca         1 702      -0.203000
     14 CAQ         -6.7730    -1.1210     1.3460 ca         1 702      -0.114000
     15 CAR         -5.6620    -3.3310     0.0170 ca         1 702      -0.131000
     16 CAS         -1.2790    -2.0160    -0.2210 ca         1 702      -0.139000
     17 CAU          1.0760    -1.4280    -0.9750 c3         1 702      -0.049100
     18 CAV          3.1100    -0.1220    -0.0740 c3         1 702       0.019600
     19 OAX         -3.4600    -2.5780     0.5780 os         1 702      -0.269200
     20 CAY         -0.4320    -1.4300    -1.1800 ca         1 702       0.001700
     21 CAZ         -3.8340     0.7390     1.0310 ca         1 702      -0.114300
     22 CBA         -2.6720    -2.0110    -0.4010 ca         1 702       0.121100
     23 CBB         -5.3710    -1.2740     1.3110 ca         1 702      -0.054300
     24 CBC         -4.8210    -2.3880     0.6340 ca         1 702       0.135100
     25 CBD          3.6660     1.1270     0.6790 c3         1 702      -0.604700
     26 PBE          3.4930     2.6860    -0.2230 p5         1 702       1.349500
     27 SBF          5.3820     0.9400     1.1280 s6         1 702       1.352600
     28 HAI         -0.7660     2.0120     0.1770 ha         1 702       0.162000
     29 HAJ         -8.6890    -1.9320     0.7540 ha         1 702       0.091000
     30 HAK         -7.7050    -3.8960    -0.4230 ha         1 702       0.092000
     31 HAL         -2.8130    -0.3790    -3.4070 ha         1 702       0.087000
     32 HAM         -5.6950     1.2710     0.0490 ha         1 702       0.099000
     33 HAN         -1.8190     0.4400     1.7840 ha         1 702       0.099000
     34 HAO         -0.3490    -0.3790    -3.0740 ha         1 702       0.123000
     35 HAP         -4.3010    -1.4090    -1.7170 ha         1 702       0.100000
     36 HAQ         -7.2150    -0.2700     1.8590 ha         1 702       0.104000
     37 HAR         -5.2290    -4.1860    -0.4960 ha         1 702       0.119000
     38 HAS         -0.8590    -2.4670     0.6730 ha         1 702       0.128000
     39 HAU          1.5840    -1.5740    -1.9360 hc         1 702       0.032200
     40 HAUA         1.3690    -2.2770    -0.3440 hc         1 702       0.032200
     41 HAV          3.3250    -1.0250     0.5090 hc         1 702       0.015200
     42 HAVA         3.6350    -0.2430    -1.0300 hc         1 702       0.015200
     43 HBD          3.1300     1.2380     1.6240 h1         1 702       0.048700
     44 HAG         -2.1680     3.2100    -1.5010 ha         1 702       0.120000
     45 CAT          1.5820    -0.1190    -0.3290 c3         1 702      -0.065400
     46 OAD          3.6630     2.4550    -1.6880 o          1 702      -0.945167
     47 OAE          4.3910     3.7880     0.2260 o          1 702      -0.945167
     48 OAF          2.0910     3.1350     0.0210 o          1 702      -0.945167
     49 CAW         -4.4790    -0.2440     2.0060 c3         1 702       0.023200
     50 HAH         -4.6340     2.8400    -1.5580 ha         1 702       0.162000
     51 HAT          1.3150     0.7170    -0.9850 hc         1 702       0.056700
     52 HATA         1.0570     0.0360     0.6220 hc         1 702       0.056700
     53 HAW         -3.7080    -0.7660     2.5870 hc         1 702       0.049200
     54 HAWA        -5.0610     0.3190     2.7460 hc         1 702       0.049200
@<TRIPOS>BOND
     1     1    27 1   
     2     2    27 1   
     3     3    27 1   
     4     4     5 ar  
     5     4     6 ar  
     6     4    44 1   
     7     5    10 ar  
     8     5    50 1   
     9     6    11 ar  
    10     6    28 1   
    11     7     8 ar  
    12     7    14 ar  
    13     7    29 1   
    14     8    15 ar  
    15     8    30 1   
    16     9    12 ar  
    17     9    13 ar  
    18     9    31 1   
    19    10    21 ar  
    20    10    32 1   
    21    11    21 ar  
    22    11    33 1   
    23    12    20 ar  
    24    12    34 1   
    25    13    22 ar  
    26    13    35 1   
    27    14    23 ar  
    28    14    36 1   
    29    15    24 ar  
    30    15    37 1   
    31    16    20 ar  
    32    16    22 ar  
    33    16    38 1   
    34    17    20 1   
    35    17    39 1   
    36    17    40 1   
    37    17    45 1   
    38    18    25 1   
    39    18    41 1   
    40    18    42 1   
    41    18    45 1   
    42    19    22 1   
    43    19    24 1   
    44    21    49 1   
    45    23    24 ar  
    46    23    49 1   
    47    25    26 1   
    48    25    27 1   
    49    25    43 1   
    50    26    46 1   
    51    26    47 1   
    52    26    48 1   
    53    45    51 1   
    54    45    52 1   
    55    49    53 1   
    56    49    54 1   
@<TRIPOS>SUBSTRUCTURE
     1 702         1 TEMP              0 ****  ****    0 ROOT
