@<TRIPOS>MOLECULE
702
   54    56     1     0     0
SMALL
bcc


@<TRIPOS>ATOM
      1 OAA          5.9220     1.3430    -0.0580 o          1 702      -0.746533
      2 OAB          5.4660    -0.5840     1.3810 o          1 702      -0.746533
      3 OAC          5.4370     1.6560     2.3470 o          1 702      -0.746533
      4 CAG         -2.5170     2.5830    -0.9150 ca         1 702      -0.127000
      5 CAH         -3.8850     2.3460    -0.9590 ca         1 702      -0.113500
      6 CAI         -1.7380     1.9640     0.0530 ca         1 702      -0.113500
      7 CAJ         -7.4180    -2.0270     0.8650 ca         1 702      -0.154000
      8 CAK         -6.8420    -3.1210     0.2340 ca         1 702      -0.145000
      9 CAL         -2.3760    -1.0240    -2.6080 ca         1 702      -0.108000
     10 CAM         -4.4750     1.4950    -0.0380 ca         1 702      -0.136500
     11 CAN         -2.3390     1.1070     0.9670 ca         1 702      -0.136500
     12 CAO         -0.9960    -1.0720    -2.5000 ca         1 702      -0.151000
     13 CAP         -3.1930    -1.4520    -1.5710 ca         1 702      -0.221000
     14 CAQ         -6.6080    -1.0450     1.4180 ca         1 702      -0.132000
     15 CAR         -5.4600    -3.2220     0.1570 ca         1 702      -0.149000
     16 CAS         -1.2150    -2.0030    -0.3040 ca         1 702      -0.157000
     17 CAU          1.0890    -1.5000    -1.1510 c3         1 702      -0.049100
     18 CAV          3.0000    -0.1400    -0.1840 c3         1 702       0.019600
     19 OAX         -3.3010    -2.3670     0.6760 os         1 702      -0.269200
     20 CAY         -0.4010    -1.5560    -1.3370 ca         1 702       0.001700
     21 CAZ         -3.7070     0.8640     0.9390 ca         1 702      -0.114300
     22 CBA         -2.5980    -1.9390    -0.4160 ca         1 702       0.121100
     23 CBB         -5.2190    -1.1200     1.3480 ca         1 702      -0.054300
     24 CBC         -4.6650    -2.2280     0.7060 ca         1 702       0.135100
     25 CBD          3.4230     0.9830     0.7620 c3         1 702      -0.336100
     26 PBE          2.8870     2.6930     0.1320 p5         1 702       1.191700
     27 SBF          5.1830     0.8570     1.1280 s6         1 702       1.241800
     28 HAI         -0.6690     2.1490     0.1090 ha         1 702       0.180000
     29 HAJ         -8.4940    -1.9420     0.9350 ha         1 702       0.109000
     30 HAK         -7.4620    -3.8980    -0.1940 ha         1 702       0.110000
     31 HAL         -2.8320    -0.6360    -3.5100 ha         1 702       0.105000
     32 HAM         -5.5430     1.3150    -0.0850 ha         1 702       0.117000
     33 HAN         -1.7250     0.6130     1.7120 ha         1 702       0.117000
     34 HAO         -0.3760    -0.7190    -3.3150 ha         1 702       0.141000
     35 HAP         -4.2680    -1.3810    -1.6670 ha         1 702       0.118000
     36 HAQ         -7.0600    -0.1980     1.9190 ha         1 702       0.122000
     37 HAR         -4.9970    -4.0760    -0.3220 ha         1 702       0.137000
     38 HAS         -0.7740    -2.3740     0.6140 ha         1 702       0.146000
     39 HAU          1.5820    -1.4780    -2.1270 hc         1 702       0.032200
     40 HAUA         1.4430    -2.4020    -0.6430 hc         1 702       0.032200
     41 HAV          3.3860    -1.0980     0.1750 hc         1 702       0.015200
     42 HAVA         3.4520     0.0360    -1.1630 hc         1 702       0.015200
     43 HBD          2.9440     0.8160     1.7340 h1         1 702       0.048700
     44 HAG         -2.0590     3.2500    -1.6360 ha         1 702       0.138000
     45 CAT          1.4910    -0.2630    -0.3440 c3         1 702      -0.065400
     46 OAD          3.0370     2.6230    -1.3890 o          1 702      -0.945167
     47 OAE          3.8000     3.7180     0.8040 o          1 702      -0.945167
     48 OAF          1.4300     2.7980     0.6100 o          1 702      -0.945167
     49 CAW         -4.3530    -0.0500     1.9550 c3         1 702       0.023200
     50 HAH         -4.4960     2.8270    -1.7140 ha         1 702       0.180000
     51 HAT          1.0850     0.6310    -0.8140 hc         1 702       0.056700
     52 HATA         1.0210    -0.3180     0.6420 hc         1 702       0.056700
     53 HAW         -3.5760    -0.5060     2.5730 hc         1 702       0.049200
     54 HAWA        -4.9700     0.5470     2.6320 hc         1 702       0.049200
@<TRIPOS>BOND
     1     1    27 1   
     2     2    27 1   
     3     3    27 1   
     4     4     5 ar  
     5     4     6 ar  
     6     4    44 1   
     7     5    10 ar  
     8     5    50 1   
     9     6    11 ar  
    10     6    28 1   
    11     7     8 ar  
    12     7    14 ar  
    13     7    29 1   
    14     8    15 ar  
    15     8    30 1   
    16     9    12 ar  
    17     9    13 ar  
    18     9    31 1   
    19    10    21 ar  
    20    10    32 1   
    21    11    21 ar  
    22    11    33 1   
    23    12    20 ar  
    24    12    34 1   
    25    13    22 ar  
    26    13    35 1   
    27    14    23 ar  
    28    14    36 1   
    29    15    24 ar  
    30    15    37 1   
    31    16    20 ar  
    32    16    22 ar  
    33    16    38 1   
    34    17    20 1   
    35    17    39 1   
    36    17    40 1   
    37    17    45 1   
    38    18    25 1   
    39    18    41 1   
    40    18    42 1   
    41    18    45 1   
    42    19    22 1   
    43    19    24 1   
    44    21    49 1   
    45    23    24 ar  
    46    23    49 1   
    47    25    26 1   
    48    25    27 1   
    49    25    43 1   
    50    26    46 1   
    51    26    47 1   
    52    26    48 1   
    53    45    51 1   
    54    45    52 1   
    55    49    53 1   
    56    49    54 1   
@<TRIPOS>SUBSTRUCTURE
     1 702         1 TEMP              0 ****  ****    0 ROOT
