@<TRIPOS>MOLECULE
703
   51    55     1     0     0
SMALL
abcg2


@<TRIPOS>ATOM
      1 C1          -5.5870    -2.8810    -0.5920 ca         1 703      -0.117000
      2 C2          -6.8340    -2.2780    -0.5450 ca         1 703      -0.041000
      3 C3          -6.8880    -0.9050    -0.3700 ca         1 703      -0.172200
      4 C4          -5.7480    -0.1300    -0.2370 ca         1 703      -0.046000
      5 C5          -4.4980    -0.7410    -0.2920 ca         1 703      -0.022000
      6 C6          -4.4330    -2.1260    -0.4750 ca         1 703      -0.052000
      7 N7          -8.1900    -0.2490    -0.3140 no         1 703       0.694200
      8 O8          -8.2170     0.9430    -0.1250 o          1 703      -0.395000
      9 O9          -9.1740    -0.9340    -0.4600 o          1 703      -0.395000
     10 C10         -3.2720     0.0400    -0.1570 cc         1 703      -0.142000
     11 S11         -3.2530     1.7140    -0.6440 ss         1 703       0.279000
     12 C12         -1.6070     1.8600    -0.1960 cc         1 703      -0.258000
     13 C13         -1.1260     0.6510     0.2930 cd         1 703      -0.045000
     14 C14         -2.0630    -0.3970     0.3220 cd         1 703      -0.087000
     15 N15          0.1840     0.8690     0.6160 n          1 703       0.091200
     16 C16          0.5110     2.1760     0.3310 cd         1 703      -0.254600
     17 C17         -0.5750     2.8340    -0.1780 cc         1 703       0.014000
     18 C18          1.2500     0.1660     1.1210 cs         1 703       0.385200
     19 N19          2.2820     1.0620     1.1670 n          1 703      -0.334400
     20 C20          1.9140     2.3280     0.6810 c          1 703       0.602600
     21 S21          1.2470    -1.4030     1.5650 s          1 703      -0.436400
     22 O22          2.6480     3.2790     0.5980 o          1 703      -0.458000
     23 C23          3.6290     0.7290     1.5840 c3         1 703       0.106000
     24 C24          4.4520     0.1390     0.4470 c3         1 703      -0.101400
     25 C25          5.8740    -0.1480     0.9090 c3         1 703       0.172800
     26 N26          6.6610    -0.8700    -0.0710 n3         1 703      -0.711600
     27 C27          7.9270    -1.3000     0.4950 c6         1 703       0.124300
     28 C28          8.7200    -2.0920    -0.5270 c6         1 703       0.153100
     29 O29          8.9470    -1.3420    -1.7000 os         1 703      -0.449000
     30 C30          7.7250    -0.9170    -2.2610 c6         1 703       0.153100
     31 C31          6.9060    -0.1000    -1.2800 c6         1 703       0.124300
     32 H1          -5.5160    -3.9500    -0.7320 ha         1 703       0.132000
     33 H2          -7.7300    -2.8720    -0.6450 ha         1 703       0.155000
     34 H4          -5.8350     0.9360    -0.0760 ha         1 703       0.155000
     35 H6          -3.4710    -2.6170    -0.5460 ha         1 703       0.131000
     36 H14         -1.8750    -1.3950     0.6870 ha         1 703       0.165000
     37 H17         -0.6240     3.8630    -0.4940 ha         1 703       0.162000
     38 H231         4.0870     1.6420     1.9630 h1         1 703       0.076200
     39 H232         3.5570     0.0310     2.4180 h1         1 703       0.076200
     40 H241         3.9890    -0.7870     0.0980 hc         1 703       0.062700
     41 H242         4.4490     0.8420    -0.3890 hc         1 703       0.062700
     42 H251         6.3620     0.7980     1.2020 h1         1 703       0.033700
     43 H252         5.8320    -0.7650     1.8120 h1         1 703       0.033700
     44 H271         8.5300    -0.4430     0.8450 h1         1 703       0.041450
     45 H272         7.7380    -1.9360     1.3640 h1         1 703       0.041450
     46 H281         9.6940    -2.3640    -0.1170 h1         1 703       0.051700
     47 H282         8.1820    -3.0210    -0.7640 h1         1 703       0.051700
     48 H301         7.9600    -0.3160    -3.1410 h1         1 703       0.051700
     49 H302         7.1340    -1.7830    -2.5910 h1         1 703       0.051700
     50 H311         5.9600     0.1560    -1.7610 h1         1 703       0.041450
     51 H312         7.4240     0.8490    -1.0580 h1         1 703       0.041450
@<TRIPOS>BOND
     1     1     2 ar  
     2     1     6 ar  
     3     1    32 1   
     4     2     3 ar  
     5     2    33 1   
     6     3     4 ar  
     7     3     7 1   
     8     4     5 ar  
     9     4    34 1   
    10     5     6 ar  
    11     5    10 1   
    12     6    35 1   
    13     7     8 1   
    14     7     9 1   
    15    10    11 1   
    16    10    14 2   
    17    11    12 1   
    18    12    13 2   
    19    12    17 1   
    20    13    14 1   
    21    13    15 1   
    22    14    36 1   
    23    15    16 1   
    24    15    18 1   
    25    16    17 2   
    26    16    20 1   
    27    17    37 1   
    28    18    19 1   
    29    18    21 2   
    30    19    20 1   
    31    19    23 1   
    32    20    22 2   
    33    23    24 1   
    34    23    38 1   
    35    23    39 1   
    36    24    25 1   
    37    24    40 1   
    38    24    41 1   
    39    25    26 1   
    40    25    42 1   
    41    25    43 1   
    42    26    27 1   
    43    26    31 1   
    44    27    28 1   
    45    27    44 1   
    46    27    45 1   
    47    28    29 1   
    48    28    46 1   
    49    28    47 1   
    50    29    30 1   
    51    30    31 1   
    52    30    48 1   
    53    30    49 1   
    54    31    50 1   
    55    31    51 1   
@<TRIPOS>SUBSTRUCTURE
     1 703         1 TEMP              0 ****  ****    0 ROOT
