@<TRIPOS>MOLECULE
703
   51    55     1     0     0
SMALL
No Charge or Current Charge


@<TRIPOS>ATOM
      1 C1          -4.9160    -2.9890    -0.5320 ca         1 703      -0.117000
      2 C2          -6.2280    -2.5480    -0.7720 ca         1 703      -0.041000
      3 C3          -6.5210    -1.1640    -0.7800 ca         1 703      -0.172200
      4 C4          -5.4770    -0.2380    -0.5410 ca         1 703      -0.046000
      5 C5          -4.1600    -0.6790    -0.2930 ca         1 703      -0.022000
      6 C6          -3.8880    -2.0620    -0.2950 ca         1 703      -0.052000
      7 N7          -7.9180    -0.6860    -1.0360 no         1 703       0.694200
      8 O8          -8.1280     0.5350    -1.0400 o          1 703      -0.395000
      9 O9          -8.8000    -1.5320    -1.2340 o          1 703      -0.395000
     10 C10         -3.0950     0.2990    -0.0550 cc         1 703      -0.142000
     11 S11         -3.0110     1.9390    -0.7730 ss         1 703       0.279000
     12 C12         -1.5270     2.1970     0.1160 cc         1 703      -0.258000
     13 C13         -1.1650     1.1320     0.8540 cd         1 703      -0.045000
     14 C14         -2.0350     0.0180     0.7970 cd         1 703      -0.087000
     15 N15          0.0360     1.3570     1.4920 n          1 703       0.091200
     16 C16          0.4800     2.4920     0.9020 cd         1 703      -0.254600
     17 C17         -0.4500     3.1350     0.1070 cc         1 703       0.014000
     18 C18          1.0840     0.4980     1.7580 cs         1 703       0.385200
     19 N19          2.2100     1.3130     1.5550 n          1 703      -0.334400
     20 C20          1.9050     2.5830     1.0170 c          1 703       0.602600
     21 S21          1.0420    -1.1180     2.2090 s          1 703      -0.436400
     22 O22          2.6730     3.4590     0.6490 o          1 703      -0.458000
     23 C23          3.6010     0.9120     1.8330 c3         1 703       0.106000
     24 C24          4.2750     0.2370     0.6230 c3         1 703      -0.101400
     25 C25          5.7310    -0.1840     0.9160 c3         1 703       0.172800
     26 N26          6.3740    -0.9710    -0.1650 n3         1 703      -0.711600
     27 C27          7.6910    -1.5430     0.2600 c6         1 703       0.124300
     28 C28          8.3490    -2.3910    -0.8690 c6         1 703       0.153100
     29 O29          8.4810    -1.6020    -2.0750 os         1 703      -0.449000
     30 C30          7.2090    -1.1020    -2.5540 c6         1 703       0.153100
     31 C31          6.5210    -0.2300    -1.4610 c6         1 703       0.124300
     32 H1          -4.6950    -4.0540    -0.5330 ha         1 703       0.132000
     33 H2          -7.0070    -3.2860    -0.9530 ha         1 703       0.155000
     34 H4          -5.6870     0.8290    -0.5350 ha         1 703       0.155000
     35 H6          -2.8780    -2.4260    -0.1280 ha         1 703       0.131000
     36 H14         -1.8870    -0.9100     1.3410 ha         1 703       0.165000
     37 H17         -0.3300     4.0060    -0.5340 ha         1 703       0.162000
     38 H231         4.1790     1.7990     2.1240 h1         1 703       0.076200
     39 H232         3.6090     0.2220     2.6870 h1         1 703       0.076200
     40 H241         3.6970    -0.6490     0.3360 hc         1 703       0.062700
     41 H242         4.2510     0.9310    -0.2240 hc         1 703       0.062700
     42 H251         6.3240     0.7170     1.1260 h1         1 703       0.033700
     43 H252         5.7230    -0.7840     1.8360 h1         1 703       0.033700
     44 H271         8.3830    -0.7360     0.5420 h1         1 703       0.041450
     45 H272         7.5610    -2.1810     1.1470 h1         1 703       0.041450
     46 H281         9.3440    -2.7310    -0.5500 h1         1 703       0.051700
     47 H282         7.7350    -3.2780    -1.0790 h1         1 703       0.051700
     48 H301         7.3760    -0.5040    -3.4600 h1         1 703       0.051700
     49 H302         6.5620    -1.9510    -2.8180 h1         1 703       0.051700
     50 H311         5.5410     0.0820    -1.8460 h1         1 703       0.041450
     51 H312         7.1170     0.6830    -1.3130 h1         1 703       0.041450
@<TRIPOS>BOND
     1     1     2 ar  
     2     1     6 ar  
     3     1    32 1   
     4     2     3 ar  
     5     2    33 1   
     6     3     4 ar  
     7     3     7 1   
     8     4     5 ar  
     9     4    34 1   
    10     5     6 ar  
    11     5    10 1   
    12     6    35 1   
    13     7     8 1   
    14     7     9 1   
    15    10    11 1   
    16    10    14 2   
    17    11    12 1   
    18    12    13 2   
    19    12    17 1   
    20    13    14 1   
    21    13    15 1   
    22    14    36 1   
    23    15    16 1   
    24    15    18 1   
    25    16    17 2   
    26    16    20 1   
    27    17    37 1   
    28    18    19 1   
    29    18    21 2   
    30    19    20 1   
    31    19    23 1   
    32    20    22 2   
    33    23    24 1   
    34    23    38 1   
    35    23    39 1   
    36    24    25 1   
    37    24    40 1   
    38    24    41 1   
    39    25    26 1   
    40    25    42 1   
    41    25    43 1   
    42    26    27 1   
    43    26    31 1   
    44    27    28 1   
    45    27    44 1   
    46    27    45 1   
    47    28    29 1   
    48    28    46 1   
    49    28    47 1   
    50    29    30 1   
    51    30    31 1   
    52    30    48 1   
    53    30    49 1   
    54    31    50 1   
    55    31    51 1   
@<TRIPOS>SUBSTRUCTURE
     1 703         1 TEMP              0 ****  ****    0 ROOT
