@<TRIPOS>MOLECULE
704
   41    43     1     0     0
SMALL
bcc


@<TRIPOS>ATOM
      1 CL1         -6.4790    -0.8980    -0.2670 cl         1 704      -0.102400
      2 C1           3.4240     0.6890     1.7640 c3         1 704      -0.112100
      3 C2           3.5290     0.2310     0.3060 c3         1 704       0.168500
      4 C4           5.0010     0.1510    -0.1030 c          1 704       0.663100
      5 O5           5.5510    -0.9450    -0.1510 o          1 704      -0.610100
      6 N6           5.6500     1.3020    -0.3370 n          1 704      -0.467800
      7 C7           5.0510     2.6200    -0.3610 c3         1 704       0.083800
      8 C8           7.0810     1.2960    -0.5710 c3         1 704       0.083800
      9 N9           2.9600    -1.0800     0.1140 nu         1 704      -0.864900
     10 C10          1.6430    -1.3030     0.0500 ca         1 704       0.713200
     11 C11          1.1230    -2.6080    -0.0870 ca         1 704      -0.190700
     12 C12         -0.2260    -2.7720    -0.1590 ca         1 704       0.441200
     13 N13         -1.0690    -1.7320    -0.1030 nb         1 704      -0.733000
     14 C14         -0.5130    -0.5360     0.0260 ca         1 704       0.796800
     15 N15          0.7940    -0.2850     0.1040 nb         1 704      -0.813000
     16 C16         -1.3980     0.6150     0.0930 cc         1 704      -0.212000
     17 C17         -0.9990     1.9220     0.2350 cd         1 704      -0.042100
     18 N18         -2.0790     2.7410     0.2650 na         1 704      -0.268100
     19 C20         -3.2140     1.9950     0.1440 ca         1 704       0.419800
     20 C21         -2.8290     0.6400     0.0330 ca         1 704      -0.159100
     21 C22         -3.8490    -0.2980    -0.0980 ca         1 704      -0.021000
     22 C23         -5.1410     0.1910    -0.1080 ca         1 704      -0.127900
     23 C24         -5.4040     1.5600     0.0080 ca         1 704       0.433200
     24 N25         -4.4490     2.4640     0.1350 nb         1 704      -0.674000
     25 H1           2.3800     0.7010     2.0720 hc         1 704       0.051367
     26 H2           3.9710     0.0110     2.4200 hc         1 704       0.051367
     27 H3           3.8240     1.6930     1.9050 hc         1 704       0.051367
     28 H4           2.9810     0.9300    -0.3280 h1         1 704       0.083700
     29 H5           5.2790     3.1760     0.5510 h1         1 704       0.045200
     30 H6           5.4540     3.1780    -1.2060 h1         1 704       0.045200
     31 H7           3.9740     2.5840    -0.4850 h1         1 704       0.045200
     32 H8           7.5130     0.3350    -0.3130 h1         1 704       0.045200
     33 H9           7.3020     1.5120    -1.6180 h1         1 704       0.045200
     34 H10          7.5520     2.0650     0.0420 h1         1 704       0.045200
     35 H11          3.6050    -1.8550     0.1070 hn         1 704       0.481800
     36 H12         -0.6540    -3.7630    -0.2650 h4         1 704       0.036100
     37 H13         -0.0010     2.3190     0.3180 h4         1 704       0.178000
     38 H14         -2.0470     3.7440     0.3550 hn         1 704       0.314700
     39 H15         -3.6360    -1.3540    -0.1870 ha         1 704       0.177000
     40 H16         -6.4270     1.9180    -0.0020 h4         1 704       0.034100
     41 F27          1.9670    -3.6500    -0.1430 f          1 704      -0.132900
@<TRIPOS>BOND
     1     1    22 1   
     2     2     3 1   
     3     2    25 1   
     4     2    26 1   
     5     2    27 1   
     6     3     4 1   
     7     3     9 1   
     8     3    28 1   
     9     4     5 2   
    10     4     6 1   
    11     6     7 1   
    12     6     8 1   
    13     7    29 1   
    14     7    30 1   
    15     7    31 1   
    16     8    32 1   
    17     8    33 1   
    18     8    34 1   
    19     9    10 1   
    20     9    35 1   
    21    10    11 ar  
    22    10    15 ar  
    23    11    12 ar  
    24    11    41 1   
    25    12    13 ar  
    26    12    36 1   
    27    13    14 ar  
    28    14    15 ar  
    29    14    16 1   
    30    16    17 2   
    31    16    20 1   
    32    17    18 1   
    33    17    37 1   
    34    18    19 1   
    35    18    38 1   
    36    19    20 ar  
    37    19    24 ar  
    38    20    21 ar  
    39    21    22 ar  
    40    21    39 1   
    41    22    23 ar  
    42    23    24 ar  
    43    23    40 1   
@<TRIPOS>SUBSTRUCTURE
     1 704         1 TEMP              0 ****  ****    0 ROOT
