@<TRIPOS>MOLECULE
704
   41    43     1     0     0
SMALL
No Charge or Current Charge


@<TRIPOS>ATOM
      1 Cl1         -6.5700    -0.9780    -0.3690 cl         1 704      -0.194000
      2 C1           3.4940     0.6080     1.8850 c3         1 704      -0.112100
      3 C2           3.6250     0.2040     0.3980 c3         1 704       0.168500
      4 C4           5.1380     0.1750    -0.0570 c          1 704       0.596100
      5 O5           5.7400    -0.8920    -0.1690 o          1 704      -0.610100
      6 N6           5.8150     1.3980    -0.3090 n          1 704      -0.400800
      7 C7           5.0820     2.6720    -0.5020 c3         1 704       0.083800
      8 C8           7.2580     1.3920    -0.6420 c3         1 704       0.083800
      9 N9           2.9350    -1.1060     0.1810 nu         1 704      -0.920100
     10 C10          1.5650    -1.3600     0.0840 ca         1 704       0.384900
     11 C11          1.0700    -2.6680    -0.0820 ca         1 704      -0.025000
     12 C12         -0.3200    -2.8250    -0.1730 ca         1 704       0.112900
     13 N13         -1.1500    -1.7660    -0.1060 nb         1 704      -0.207000
     14 C14         -0.5940    -0.5430     0.0510 ca         1 704       0.270800
     15 N15          0.7350    -0.3040     0.1470 nb         1 704      -0.287000
     16 C16         -1.4960     0.6190     0.1270 cc         1 704      -0.212000
     17 C17         -1.0140     1.9100     0.3050 cd         1 704      -0.092100
     18 N18         -2.1180     2.7960     0.3400 na         1 704      -0.318400
     19 C20         -3.2690     2.0490     0.1830 ca         1 704       0.354500
     20 C21         -2.9330     0.7150     0.0500 ca         1 704      -0.093800
     21 C22         -3.9210    -0.2700    -0.1250 ca         1 704      -0.003000
     22 C23         -5.2540     0.1750    -0.1550 ca         1 704       0.029000
     23 C24         -5.5170     1.5580    -0.0110 ca         1 704       0.367900
     24 N25         -4.5410     2.4920     0.1560 nb         1 704      -0.674000
     25 H1           2.4420     0.7050     2.1760 hc         1 704       0.051367
     26 H2           3.9600    -0.1460     2.5320 hc         1 704       0.051367
     27 H3           3.9850     1.5680     2.0800 hc         1 704       0.051367
     28 H4           3.1300     0.9670    -0.2160 h1         1 704       0.083700
     29 H5           4.6080     2.9840     0.4360 h1         1 704       0.045200
     30 H6           5.7670     3.4660    -0.8240 h1         1 704       0.045200
     31 H7           4.3130     2.5470    -1.2760 h1         1 704       0.045200
     32 H8           7.8000     0.7320     0.0470 h1         1 704       0.045200
     33 H9           7.3980     1.0330    -1.6700 h1         1 704       0.045200
     34 H10          7.6780     2.4020    -0.5540 h1         1 704       0.045200
     35 H11          3.5400    -1.9260     0.0670 hn         1 704       0.537000
     36 H12         -0.7760    -3.8060    -0.3020 h4         1 704       0.036100
     37 H13          0.0110     2.2620     0.4100 h4         1 704       0.228000
     38 H14         -2.0880     3.8010     0.4580 hn         1 704       0.365000
     39 H15         -3.6870    -1.3240    -0.2330 ha         1 704       0.159000
     40 H16         -6.5410     1.9290    -0.0310 h4         1 704       0.034100
     41 F27          1.8960    -3.7410    -0.1520 f          1 704      -0.168000
@<TRIPOS>BOND
     1     1    22 1   
     2     2     3 1   
     3     2    25 1   
     4     2    26 1   
     5     2    27 1   
     6     3     4 1   
     7     3     9 1   
     8     3    28 1   
     9     4     5 2   
    10     4     6 1   
    11     6     7 1   
    12     6     8 1   
    13     7    29 1   
    14     7    30 1   
    15     7    31 1   
    16     8    32 1   
    17     8    33 1   
    18     8    34 1   
    19     9    10 1   
    20     9    35 1   
    21    10    11 ar  
    22    10    15 ar  
    23    11    12 ar  
    24    11    41 1   
    25    12    13 ar  
    26    12    36 1   
    27    13    14 ar  
    28    14    15 ar  
    29    14    16 1   
    30    16    17 2   
    31    16    20 1   
    32    17    18 1   
    33    17    37 1   
    34    18    19 1   
    35    18    38 1   
    36    19    20 ar  
    37    19    24 ar  
    38    20    21 ar  
    39    21    22 ar  
    40    21    39 1   
    41    22    23 ar  
    42    23    24 ar  
    43    23    40 1   
@<TRIPOS>SUBSTRUCTURE
     1 704         1 TEMP              0 ****  ****    0 ROOT
