@<TRIPOS>MOLECULE
705
   70    74     1     0     0
SMALL
No Charge or Current Charge


@<TRIPOS>ATOM
      1 F30          0.5220    -6.0100     3.5500 f          1 705      -0.180000
      2 C29          0.7290    -5.1520     2.5280 ca         1 705       0.168000
      3 C26          1.2960    -5.6140     1.3320 ca         1 705      -0.157000
      4 C25          1.5090    -4.7220     0.2660 ca         1 705      -0.080500
      5 C28          0.3740    -3.8030     2.6650 ca         1 705      -0.157000
      6 C27          0.5820    -2.9110     1.5980 ca         1 705      -0.080500
      7 C24          1.1570    -3.3520     0.3770 cp         1 705      -0.047000
      8 C22          1.3720    -2.4020    -0.7630 cp         1 705      -0.045000
      9 C21          1.7180    -1.0470    -0.5290 ca         1 705      -0.067000
     10 C23          1.2350    -2.8320    -2.1050 ca         1 705      -0.089000
     11 C33          1.4310    -1.9410    -3.1670 ca         1 705       0.098100
     12 O34          1.2910    -2.3710    -4.4570 oh         1 705      -0.533100
     13 C31          1.7760    -0.5980    -2.9160 ca         1 705       0.134100
     14 O32          1.9660     0.2470    -3.9740 oh         1 705      -0.574100
     15 C20          1.9260    -0.1290    -1.5910 ca         1 705      -0.231600
     16 C18          2.3090     1.3130    -1.3280 c          1 705       0.631700
     17 O19          2.5540     2.0880    -2.2470 o          1 705      -0.648100
     18 N17          2.3860     1.7110    -0.0140 ns         1 705      -0.483900
     19 C16          2.7330     3.0590     0.4250 c3         1 705       0.128200
     20 C15          1.5460     3.9750     0.2470 c2         1 705      -0.226200
     21 C14          0.4380     3.9750     1.0080 c2         1 705      -0.228200
     22 C6          -0.6980     4.9310     0.6570 c5         1 705       0.195500
     23 C4          -1.7690     4.9860     1.8110 c5         1 705       0.093300
     24 O5          -1.7540     6.2210     2.5550 oh         1 705      -0.705000
     25 C2          -3.1050     4.8450     1.0240 c5         1 705       0.102300
     26 O3          -3.5160     6.1400     0.5610 oh         1 705      -0.700000
     27 O13         -1.3580     4.3850    -0.5080 os         1 705      -0.436000
     28 C1          -2.6540     3.8750    -0.1230 c5         1 705       0.324300
     29 N10         -2.5450     2.4380     0.1800 na         1 705      -0.311300
     30 C9          -2.9060     1.8120     1.3810 cc         1 705       0.408700
     31 C11         -2.2070     1.4490    -0.7040 ca         1 705       0.122500
     32 N40         -1.7900     1.4830    -1.9850 nb         1 705      -0.223000
     33 C39         -1.5810     0.2780    -2.5660 ca         1 705       0.182900
     34 N38         -1.7650    -0.9380    -2.0000 nb         1 705      -0.295000
     35 C35         -2.1800    -0.9420    -0.7180 ca         1 705       0.443900
     36 C12         -2.4040     0.2700    -0.0310 ca         1 705      -0.098600
     37 N8          -2.8390     0.4730     1.2810 nd         1 705      -0.570100
     38 N7          -2.4190    -2.1640    -0.1020 nu         1 705      -0.908100
     39 C36         -2.2530    -3.5060    -0.6740 c3         1 705       0.224800
     40 C37         -2.6040    -4.5840     0.3680 c3         1 705      -0.097400
     41 C41         -2.3400    -6.0160    -0.1380 c3         1 705      -0.086100
     42 H26          1.5710    -6.6610     1.2330 ha         1 705       0.134500
     43 H25          1.9630    -5.0960    -0.6490 ha         1 705       0.133000
     44 H28         -0.0710    -3.4520     3.5930 ha         1 705       0.134500
     45 H27          0.2750    -1.8750     1.7130 ha         1 705       0.133000
     46 H21          1.8430    -0.7280     0.5010 ha         1 705       0.112000
     47 H23          0.9570    -3.8580    -2.3270 ha         1 705       0.134000
     48 HO34         1.4780    -1.5900    -5.0270 ho         1 705       0.488000
     49 HO32         2.2280     1.1220    -3.5710 ho         1 705       0.532000
     50 HN17         2.1600     1.0210     0.6880 hn         1 705       0.321500
     51 H16          3.0320     3.0260     1.4820 h1         1 705       0.070700
     52 H16A         3.5900     3.4240    -0.1580 h1         1 705       0.070700
     53 H15          1.6380     4.6510    -0.6060 ha         1 705       0.199000
     54 H14          0.3490     3.2780     1.8430 ha         1 705       0.182000
     55 H6          -0.3260     5.9350     0.4070 h1         1 705       0.094700
     56 H4          -1.6500     4.1330     2.4940 h1         1 705       0.056700
     57 HO5         -0.9680     6.1970     3.1540 ho         1 705       0.518000
     58 H2          -3.8950     4.4000     1.6440 h1         1 705       0.079700
     59 HO3         -3.0470     6.7470     1.1910 ho         1 705       0.525000
     60 H1          -3.3510     3.9420    -0.9690 h2         1 705       0.130700
     61 H9          -3.2270     2.3620     2.2580 h5         1 705       0.071800
     62 H39         -1.2410     0.2880    -3.6000 h5         1 705       0.048100
     63 HN7         -2.7400    -2.0840     0.8620 hn         1 705       0.509000
     64 H36         -2.9020    -3.6260    -1.5540 h1         1 705       0.056200
     65 H36A        -1.2160    -3.6480    -1.0030 h1         1 705       0.056200
     66 H37         -2.0150    -4.4210     1.2780 hc         1 705       0.047200
     67 H37A        -3.6610    -4.4910     0.6480 hc         1 705       0.047200
     68 H41         -2.5980    -6.7490     0.6360 hc         1 705       0.037367
     69 H41A        -2.9420    -6.2300    -1.0290 hc         1 705       0.037367
     70 H41B        -1.2820    -6.1470    -0.3940 hc         1 705       0.037367
@<TRIPOS>BOND
     1     1     2 1   
     2     2     3 ar  
     3     2     5 ar  
     4     3     4 ar  
     5     3    42 1   
     6     4     7 ar  
     7     4    43 1   
     8     5     6 ar  
     9     5    44 1   
    10     6     7 ar  
    11     6    45 1   
    12     7     8 1   
    13     8     9 ar  
    14     8    10 ar  
    15     9    15 ar  
    16     9    46 1   
    17    10    11 ar  
    18    10    47 1   
    19    11    12 1   
    20    11    13 ar  
    21    12    48 1   
    22    13    14 1   
    23    13    15 ar  
    24    14    49 1   
    25    15    16 1   
    26    16    17 2   
    27    16    18 1   
    28    18    19 1   
    29    18    50 1   
    30    19    20 1   
    31    19    51 1   
    32    19    52 1   
    33    20    21 2   
    34    20    53 1   
    35    21    22 1   
    36    21    54 1   
    37    22    23 1   
    38    22    27 1   
    39    22    55 1   
    40    23    24 1   
    41    23    25 1   
    42    23    56 1   
    43    24    57 1   
    44    25    26 1   
    45    25    28 1   
    46    25    58 1   
    47    26    59 1   
    48    27    28 1   
    49    28    29 1   
    50    28    60 1   
    51    29    30 1   
    52    29    31 1   
    53    30    37 2   
    54    30    61 1   
    55    31    32 ar  
    56    31    36 ar  
    57    32    33 ar  
    58    33    34 ar  
    59    33    62 1   
    60    34    35 ar  
    61    35    36 ar  
    62    35    38 1   
    63    36    37 1   
    64    38    39 1   
    65    38    63 1   
    66    39    40 1   
    67    39    64 1   
    68    39    65 1   
    69    40    41 1   
    70    40    66 1   
    71    40    67 1   
    72    41    68 1   
    73    41    69 1   
    74    41    70 1   
@<TRIPOS>SUBSTRUCTURE
     1 705         1 TEMP              0 ****  ****    0 ROOT
