@<TRIPOS>MOLECULE
705
   70    74     1     0     0
SMALL
abcg2


@<TRIPOS>ATOM
      1 F30         -0.9120    -5.1500     2.9000 f          1 705      -0.180000
      2 C29         -0.0720    -4.4240     2.1440 ca         1 705       0.168000
      3 C26          1.1860    -4.9230     1.8720 ca         1 705      -0.157000
      4 C25          2.0430    -4.1700     1.0840 ca         1 705      -0.080500
      5 C28         -0.4940    -3.2030     1.6570 ca         1 705      -0.157000
      6 C27          0.3720    -2.4670     0.8620 ca         1 705      -0.080500
      7 C24          1.6530    -2.9350     0.5640 cp         1 705      -0.047000
      8 C22          2.5680    -2.1500    -0.2890 cp         1 705      -0.045000
      9 C21          2.6010    -0.7670    -0.2210 ca         1 705      -0.067000
     10 C23          3.4110    -2.7970    -1.2000 ca         1 705      -0.089000
     11 C33          4.2490    -2.0830    -2.0300 ca         1 705       0.098100
     12 O34          5.0290    -2.7440    -2.9050 oh         1 705      -0.533100
     13 C31          4.2600    -0.6780    -1.9750 ca         1 705       0.134100
     14 O32          5.0690    -0.0530    -2.8370 oh         1 705      -0.574100
     15 C20          3.4490    -0.0190    -1.0460 ca         1 705      -0.231600
     16 C18          3.5100     1.4650    -1.0140 c          1 705       0.631700
     17 O19          4.0500     2.0820    -1.9440 o          1 705      -0.648100
     18 N17          2.9810     2.0950     0.0370 ns         1 705      -0.483900
     19 C16          2.8400     3.5370     0.1410 c3         1 705       0.128200
     20 C15          1.4220     3.9340    -0.1350 c2         1 705      -0.226200
     21 C14          0.6310     4.5050     0.7650 c2         1 705      -0.228200
     22 C6          -0.8120     4.8400     0.5830 c5         1 705       0.195500
     23 C4          -1.6940     4.2980     1.7160 c5         1 705       0.093300
     24 O5          -1.7250     5.2080     2.7750 oh         1 705      -0.705000
     25 C2          -3.0370     4.1170     1.0020 c5         1 705       0.102300
     26 O3          -3.6870     5.3430     0.8220 oh         1 705      -0.700000
     27 O13         -1.3450     4.2760    -0.6110 os         1 705      -0.436000
     28 C1          -2.5670     3.6490    -0.3720 c5         1 705       0.324300
     29 N10         -2.3910     2.1990    -0.4060 na         1 705      -0.311300
     30 C9          -1.2340     1.4730    -0.3530 cc         1 705       0.408700
     31 C11         -3.4050     1.2910    -0.5100 ca         1 705       0.122500
     32 N40         -4.7150     1.5260    -0.5830 nb         1 705      -0.223000
     33 C39         -5.4060     0.4030    -0.6660 ca         1 705       0.182900
     34 N38         -4.9530    -0.8490    -0.6900 nb         1 705      -0.295000
     35 C35         -3.6360    -1.0690    -0.6200 ca         1 705       0.443900
     36 C12         -2.7880     0.0520    -0.5160 ca         1 705      -0.098600
     37 N8          -1.4300     0.1880    -0.4170 nd         1 705      -0.570100
     38 N7          -3.1640    -2.3180    -0.6370 nu         1 705      -0.908100
     39 C36         -3.9900    -3.4920    -0.8310 c3         1 705       0.224800
     40 C37         -3.1730    -4.7580    -0.6270 c3         1 705      -0.097400
     41 C41         -4.0080    -6.0080    -0.8580 c3         1 705      -0.086100
     42 H26          1.4970    -5.8790     2.2730 ha         1 705       0.134500
     43 H25          3.0380    -4.5520     0.8900 ha         1 705       0.133000
     44 H28         -1.4880    -2.8370     1.8810 ha         1 705       0.134500
     45 H27          0.0240    -1.5270     0.4480 ha         1 705       0.133000
     46 H21          1.9500    -0.2710     0.4870 ha         1 705       0.112000
     47 H23          3.3930    -3.8770    -1.2900 ha         1 705       0.134000
     48 HO34         5.5300    -2.1210    -3.4460 ho         1 705       0.488000
     49 HO32         4.8730     0.9140    -2.7500 ho         1 705       0.532000
     50 HN17         2.6140     1.5560     0.8040 hn         1 705       0.321500
     51 H16          3.1450     3.8450     1.1410 h1         1 705       0.070700
     52 H16A         3.5230     4.0020    -0.5680 h1         1 705       0.070700
     53 H15          1.0510     3.6890    -1.1260 ha         1 705       0.199000
     54 H14          1.0280     4.7670     1.7420 ha         1 705       0.182000
     55 H6          -0.9270     5.9320     0.5450 h1         1 705       0.094700
     56 H4          -1.3230     3.3170     2.0400 h1         1 705       0.056700
     57 HO5         -1.9780     4.7430     3.5790 ho         1 705       0.518000
     58 H2          -3.6810     3.3770     1.4920 h1         1 705       0.079700
     59 HO3         -3.6320     5.8350     1.6500 ho         1 705       0.525000
     60 H1          -3.2840     3.9040    -1.1570 h2         1 705       0.130700
     61 H9          -0.2680     1.9430    -0.2650 h5         1 705       0.071800
     62 H39         -6.4840     0.5090    -0.7260 h5         1 705       0.048100
     63 HN7         -2.1670    -2.4270    -0.7320 hn         1 705       0.509000
     64 H36         -4.8200    -3.4670    -0.1210 h1         1 705       0.056200
     65 H36A        -4.4320    -3.4900    -1.8330 h1         1 705       0.056200
     66 H37         -2.3180    -4.7540    -1.3100 hc         1 705       0.047200
     67 H37A        -2.7630    -4.7660     0.3860 hc         1 705       0.047200
     68 H41         -3.4080    -6.9080    -0.7310 hc         1 705       0.037367
     69 H41A        -4.8410    -6.0630    -0.1560 hc         1 705       0.037367
     70 H41B        -4.4230    -6.0260    -1.8670 hc         1 705       0.037367
@<TRIPOS>BOND
     1     1     2 1   
     2     2     3 ar  
     3     2     5 ar  
     4     3     4 ar  
     5     3    42 1   
     6     4     7 ar  
     7     4    43 1   
     8     5     6 ar  
     9     5    44 1   
    10     6     7 ar  
    11     6    45 1   
    12     7     8 1   
    13     8     9 ar  
    14     8    10 ar  
    15     9    15 ar  
    16     9    46 1   
    17    10    11 ar  
    18    10    47 1   
    19    11    12 1   
    20    11    13 ar  
    21    12    48 1   
    22    13    14 1   
    23    13    15 ar  
    24    14    49 1   
    25    15    16 1   
    26    16    17 2   
    27    16    18 1   
    28    18    19 1   
    29    18    50 1   
    30    19    20 1   
    31    19    51 1   
    32    19    52 1   
    33    20    21 2   
    34    20    53 1   
    35    21    22 1   
    36    21    54 1   
    37    22    23 1   
    38    22    27 1   
    39    22    55 1   
    40    23    24 1   
    41    23    25 1   
    42    23    56 1   
    43    24    57 1   
    44    25    26 1   
    45    25    28 1   
    46    25    58 1   
    47    26    59 1   
    48    27    28 1   
    49    28    29 1   
    50    28    60 1   
    51    29    30 1   
    52    29    31 1   
    53    30    37 2   
    54    30    61 1   
    55    31    32 ar  
    56    31    36 ar  
    57    32    33 ar  
    58    33    34 ar  
    59    33    62 1   
    60    34    35 ar  
    61    35    36 ar  
    62    35    38 1   
    63    36    37 1   
    64    38    39 1   
    65    38    63 1   
    66    39    40 1   
    67    39    64 1   
    68    39    65 1   
    69    40    41 1   
    70    40    66 1   
    71    40    67 1   
    72    41    68 1   
    73    41    69 1   
    74    41    70 1   
@<TRIPOS>SUBSTRUCTURE
     1 705         1 TEMP              0 ****  ****    0 ROOT
