@<TRIPOS>MOLECULE
706
   51    54     1     0     0
SMALL
bcc


@<TRIPOS>ATOM
      1 C2           6.1190     2.5900     0.2640 c3         1 706      -0.077600
      2 C1           5.9340     1.0850     0.1310 c5         1 706       0.002300
      3 C3           6.8100     0.3480     1.1510 c3         1 706      -0.077600
      4 C28          6.2380     0.5900    -1.3020 c5         1 706       0.187800
      5 N27          5.3500    -0.5540    -1.4790 nu         1 706      -0.725600
      6 C26          4.2380    -0.3490    -0.6900 ca         1 706       0.157600
      7 C22          3.0090    -0.9820    -0.7520 ca         1 706      -0.234000
      8 C25          4.5010     0.6240     0.2790 ca         1 706      -0.163300
      9 C23          3.5320     0.9440     1.2010 ca         1 706      -0.055000
     10 C24          2.2830     0.3190     1.1650 ca         1 706      -0.181000
     11 C13          2.0270    -0.6410     0.1870 ca         1 706       0.099600
     12 N12          0.8180    -1.3490     0.0960 ns         1 706      -0.467100
     13 C10         -0.4090    -0.9810     0.5390 c          1 706       0.706700
     14 O11         -0.6310     0.1090     1.0540 o          1 706      -0.611100
     15 C8          -1.4770    -1.9960     0.3490 ca         1 706      -0.356900
     16 C9          -1.1910    -3.3530     0.3190 ca         1 706      -0.023000
     17 C4          -2.1970    -4.2900     0.1390 ca         1 706      -0.327300
     18 C5          -3.4860    -3.8090    -0.0050 ca         1 706       0.485200
     19 N6          -3.8050    -2.5250     0.0510 nb         1 706      -0.768000
     20 C7          -2.8480    -1.6170     0.2380 ca         1 706       0.732200
     21 N14         -3.2300    -0.3210     0.2840 nu         1 706      -0.863900
     22 C15         -4.6120     0.0850     0.2910 c3         1 706       0.267100
     23 C16         -4.7530     1.5240    -0.1230 ca         1 706      -0.064300
     24 C17         -4.0260     2.0580    -1.1810 ca         1 706      -0.235800
     25 C18         -4.2330     3.3800    -1.5400 ca         1 706       0.399200
     26 N19         -5.0960     4.1840    -0.9270 nb         1 706      -0.663000
     27 C20         -5.7890     3.6730     0.0830 ca         1 706       0.399200
     28 C21         -5.6530     2.3640     0.5210 ca         1 706      -0.235800
     29 H2           7.1520     2.8750     0.0550 hc         1 706       0.038200
     30 H2A          5.4740     3.1330    -0.4280 hc         1 706       0.038200
     31 H2B          5.8870     2.9300     1.2760 hc         1 706       0.038200
     32 H3           6.5260     0.6180     2.1690 hc         1 706       0.038200
     33 H3A          6.7120    -0.7340     1.0510 hc         1 706       0.038200
     34 H3B          7.8630     0.6030     1.0150 hc         1 706       0.038200
     35 H28          6.0160     1.3810    -2.0290 h1         1 706       0.043700
     36 H28A         7.2840     0.3060    -1.4280 h1         1 706       0.043700
     37 HN27         5.2020    -0.8740    -2.4250 hn         1 706       0.403800
     38 H22          2.8040    -1.7270    -1.5120 ha         1 706       0.131000
     39 H23          3.7210     1.6890     1.9650 ha         1 706       0.134000
     40 H24          1.5390     0.5810     1.8990 ha         1 706       0.160000
     41 HN12         0.8620    -2.1780    -0.4770 hn         1 706       0.319500
     42 H9          -0.1750    -3.7000     0.4590 ha         1 706       0.133000
     43 H4          -1.9890    -5.3490     0.1200 ha         1 706       0.147000
     44 H5          -4.3110    -4.4960    -0.1600 h4         1 706       0.018100
     45 HN14        -2.5500     0.3200     0.6670 hn         1 706       0.472800
     46 H15         -5.1690    -0.5390    -0.4100 h1         1 706       0.064700
     47 H15A        -5.0750    -0.0650     1.2720 h1         1 706       0.064700
     48 H17         -3.3070     1.4590    -1.7250 ha         1 706       0.145000
     49 H18         -3.6730     3.8100    -2.3630 h4         1 706       0.019100
     50 H20         -6.4890     4.3370     0.5780 h4         1 706       0.019100
     51 H21         -6.2410     2.0120     1.3590 ha         1 706       0.145000
@<TRIPOS>BOND
     1     1     2 1   
     2     1    29 1   
     3     1    30 1   
     4     1    31 1   
     5     2     3 1   
     6     2     4 1   
     7     2     8 1   
     8     3    32 1   
     9     3    33 1   
    10     3    34 1   
    11     4     5 1   
    12     4    35 1   
    13     4    36 1   
    14     5     6 1   
    15     5    37 1   
    16     6     7 ar  
    17     6     8 ar  
    18     7    11 ar  
    19     7    38 1   
    20     8     9 ar  
    21     9    10 ar  
    22     9    39 1   
    23    10    11 ar  
    24    10    40 1   
    25    11    12 1   
    26    12    13 1   
    27    12    41 1   
    28    13    14 2   
    29    13    15 1   
    30    15    16 ar  
    31    15    20 ar  
    32    16    17 ar  
    33    16    42 1   
    34    17    18 ar  
    35    17    43 1   
    36    18    19 ar  
    37    18    44 1   
    38    19    20 ar  
    39    20    21 1   
    40    21    22 1   
    41    21    45 1   
    42    22    23 1   
    43    22    46 1   
    44    22    47 1   
    45    23    24 ar  
    46    23    28 ar  
    47    24    25 ar  
    48    24    48 1   
    49    25    26 ar  
    50    25    49 1   
    51    26    27 ar  
    52    27    28 ar  
    53    27    50 1   
    54    28    51 1   
@<TRIPOS>SUBSTRUCTURE
     1 706         1 TEMP              0 ****  ****    0 ROOT
