@<TRIPOS>MOLECULE
706
   51    54     1     0     0
SMALL
No Charge or Current Charge


@<TRIPOS>ATOM
      1 C2           6.2370     2.3610    -0.6780 c3         1 706      -0.077600
      2 C1           5.9970     1.0910     0.1780 c5         1 706       0.002300
      3 C3           6.4800     1.3670     1.6250 c3         1 706      -0.077600
      4 C28          6.6770    -0.2030    -0.4540 c5         1 706       0.187800
      5 N27          5.6950    -1.3070    -0.1730 nu         1 706      -0.919200
      6 C26          4.4580    -0.7120    -0.0520 ca         1 706       0.296000
      7 C22          3.2230    -1.3580    -0.1380 ca         1 706      -0.216000
      8 C25          4.5560     0.6400     0.1600 ca         1 706      -0.163300
      9 C23          3.3990     1.4190     0.3210 ca         1 706      -0.037000
     10 C24          2.1390     0.7900     0.2460 ca         1 706      -0.163000
     11 C13          2.0390    -0.6060     0.0100 ca         1 706       0.007000
     12 N12          0.8060    -1.3090    -0.0780 ns         1 706      -0.141000
     13 C10         -0.5200    -0.8900    -0.0690 c          1 706       0.639700
     14 O11         -0.8380     0.2920     0.0050 o          1 706      -0.611100
     15 C8          -1.5520    -1.9920    -0.1700 ca         1 706      -0.291600
     16 C9          -1.1700    -3.3480    -0.3050 ca         1 706      -0.005000
     17 C4          -2.1740    -4.3200    -0.3950 ca         1 706      -0.244000
     18 C5          -3.5160    -3.9270    -0.3500 ca         1 706       0.419900
     19 N6          -3.8910    -2.6410    -0.2220 nb         1 706      -0.768000
     20 C7          -2.9330    -1.7120    -0.1350 ca         1 706       0.666900
     21 N14         -3.4350    -0.4420    -0.0040 nu         1 706      -0.919100
     22 C15         -4.8270     0.0120    -0.1060 c3         1 706       0.267100
     23 C16         -4.8870     1.5240     0.0640 ca         1 706      -0.064300
     24 C17         -4.7740     2.3880    -1.0410 ca         1 706      -0.152500
     25 C18         -4.8270     3.7780    -0.8390 ca         1 706       0.333900
     26 N19         -4.9830     4.3400     0.3830 nb         1 706      -0.663000
     27 C20         -5.0880     3.5100     1.4480 ca         1 706       0.333900
     28 C21         -5.0450     2.1100     1.3340 ca         1 706      -0.152500
     29 H2           7.3060     2.5970    -0.7430 hc         1 706       0.038200
     30 H2A          5.8650     2.2240    -1.7000 hc         1 706       0.038200
     31 H2B          5.7280     3.2350    -0.2540 hc         1 706       0.038200
     32 H3           5.9320     2.2030     2.0760 hc         1 706       0.038200
     33 H3A          6.3310     0.4900     2.2660 hc         1 706       0.038200
     34 H3B          7.5480     1.6150     1.6470 hc         1 706       0.038200
     35 H28          6.7990    -0.0700    -1.5380 h1         1 706       0.043700
     36 H28A         7.6760    -0.3990    -0.0380 h1         1 706       0.043700
     37 HN27         5.7170    -2.1870    -0.6930 hn         1 706       0.459000
     38 H22          3.1820    -2.4300    -0.3120 ha         1 706       0.113000
     39 H23          3.4700     2.4900     0.4980 ha         1 706       0.116000
     40 H24          1.2570     1.4070     0.3780 ha         1 706       0.142000
     41 HN12         0.9210    -2.3090    -0.1580 hn         1 706       0.153000
     42 H9          -0.1300    -3.6660    -0.3430 ha         1 706       0.115000
     43 H4          -1.9220    -5.3710    -0.5000 ha         1 706       0.129000
     44 H5          -4.3140    -4.6650    -0.4190 h4         1 706       0.018100
     45 HN14        -2.7020     0.2710     0.0350 hn         1 706       0.528000
     46 H15         -5.2480    -0.2600    -1.0850 h1         1 706       0.064700
     47 H15A        -5.4460    -0.4670     0.6660 h1         1 706       0.064700
     48 H17         -4.6450     1.9950    -2.0460 ha         1 706       0.127000
     49 H18         -4.7430     4.4640    -1.6810 h4         1 706       0.019100
     50 H20         -5.2100     3.9830     2.4210 h4         1 706       0.019100
     51 H21         -5.1310     1.4940     2.2250 ha         1 706       0.127000
@<TRIPOS>BOND
     1     1     2 1   
     2     1    29 1   
     3     1    30 1   
     4     1    31 1   
     5     2     3 1   
     6     2     4 1   
     7     2     8 1   
     8     3    32 1   
     9     3    33 1   
    10     3    34 1   
    11     4     5 1   
    12     4    35 1   
    13     4    36 1   
    14     5     6 1   
    15     5    37 1   
    16     6     7 ar  
    17     6     8 ar  
    18     7    11 ar  
    19     7    38 1   
    20     8     9 ar  
    21     9    10 ar  
    22     9    39 1   
    23    10    11 ar  
    24    10    40 1   
    25    11    12 1   
    26    12    13 1   
    27    12    41 1   
    28    13    14 2   
    29    13    15 1   
    30    15    16 ar  
    31    15    20 ar  
    32    16    17 ar  
    33    16    42 1   
    34    17    18 ar  
    35    17    43 1   
    36    18    19 ar  
    37    18    44 1   
    38    19    20 ar  
    39    20    21 1   
    40    21    22 1   
    41    21    45 1   
    42    22    23 1   
    43    22    46 1   
    44    22    47 1   
    45    23    24 ar  
    46    23    28 ar  
    47    24    25 ar  
    48    24    48 1   
    49    25    26 ar  
    50    25    49 1   
    51    26    27 ar  
    52    27    28 ar  
    53    27    50 1   
    54    28    51 1   
@<TRIPOS>SUBSTRUCTURE
     1 706         1 TEMP              0 ****  ****    0 ROOT
