@<TRIPOS>MOLECULE
707
   28    28     1     0     0
SMALL
abcg2


@<TRIPOS>ATOM
      1 O1           6.5710    -1.1090    -0.0150 o          1 707      -0.732000
      2 C1           6.3720     0.1200     0.0350 c          1 707       0.723000
      3 C2           4.9110     0.6040     0.0820 c3         1 707      -0.231400
      4 C3           3.8790    -0.5080     0.0690 c3         1 707       0.112000
      5 N1           2.5400     0.0530     0.1090 ns         1 707      -0.488900
      6 C4           1.4410    -0.6610    -0.1680 c          1 707       0.600700
      7 O2           1.4830    -1.8480    -0.4740 o          1 707      -0.620100
      8 C5           0.1370     0.0640    -0.0920 ca         1 707      -0.173600
      9 C6          -1.0250    -0.6980     0.0250 ca         1 707      -0.002000
     10 C7          -2.2590    -0.0850     0.0890 ca         1 707      -0.074900
     11 BR          -3.8150    -1.1310     0.2670 br         1 707      -0.096100
     12 C8          -2.3850     1.3090     0.0190 ca         1 707       0.169100
     13 O3          -3.6150     1.8160     0.0820 os         1 707      -0.327100
     14 C9          -3.7830     3.2240     0.0170 c3         1 707       0.149900
     15 C10         -1.2210     2.0650    -0.1140 ca         1 707      -0.216000
     16 C11          0.0170     1.4460    -0.1690 ca         1 707      -0.035000
     17 H2           4.7830     1.2240     0.9770 hc         1 707       0.019700
     18 H3           4.7400     1.2750    -0.7660 hc         1 707       0.019700
     19 H4           3.9810    -1.1100    -0.8340 h1         1 707       0.059700
     20 H5           4.0310    -1.1820     0.9170 h1         1 707       0.059700
     21 H6           2.4410     0.9720     0.5100 hn         1 707       0.300500
     22 H7          -0.9520    -1.7760     0.0730 ha         1 707       0.153000
     23 H8          -4.8520     3.4030     0.0880 h1         1 707       0.041700
     24 H9          -3.2830     3.7290     0.8470 h1         1 707       0.041700
     25 H10         -3.4160     3.6320    -0.9270 h1         1 707       0.041700
     26 H11         -1.2680     3.1420    -0.1860 ha         1 707       0.115000
     27 H12          0.8870     2.0780    -0.2970 ha         1 707       0.122000
     28 O4           7.2400     1.0160     0.0480 o          1 707      -0.732000
@<TRIPOS>BOND
     1     1     2 1   
     2     2     3 1   
     3     2    28 1   
     4     3     4 1   
     5     3    17 1   
     6     3    18 1   
     7     4     5 1   
     8     4    19 1   
     9     4    20 1   
    10     5     6 1   
    11     5    21 1   
    12     6     7 2   
    13     6     8 1   
    14     8     9 ar  
    15     8    16 ar  
    16     9    10 ar  
    17     9    22 1   
    18    10    11 1   
    19    10    12 ar  
    20    12    13 1   
    21    12    15 ar  
    22    13    14 1   
    23    14    23 1   
    24    14    24 1   
    25    14    25 1   
    26    15    16 ar  
    27    15    26 1   
    28    16    27 1   
@<TRIPOS>SUBSTRUCTURE
     1 707         1 TEMP              0 ****  ****    0 ROOT
