@<TRIPOS>MOLECULE
707
   28    28     1     0     0
SMALL
No Charge or Current Charge


@<TRIPOS>ATOM
      1 O1           6.8810    -0.2600    -1.1280 o          1 707      -0.732000
      2 C1           6.3900     0.0910    -0.0670 c          1 707       0.723000
      3 C2           4.9820     0.6930    -0.0880 c3         1 707      -0.231400
      4 C3           3.9560    -0.4440     0.0420 c3         1 707       0.112000
      5 N1           2.5890     0.0740     0.0270 ns         1 707      -0.488900
      6 C4           1.4590    -0.7080     0.1280 c          1 707       0.600700
      7 O2           1.5410    -1.9240     0.2380 o          1 707      -0.620100
      8 C5           0.1270     0.0090     0.0940 ca         1 707      -0.173600
      9 C6          -1.0630    -0.7460     0.1930 ca         1 707      -0.002000
     10 C7          -2.3190    -0.1170     0.1660 ca         1 707      -0.074900
     11 Br          -3.9010    -1.1950     0.3050 br         1 707      -0.096100
     12 C8          -2.4130     1.2810     0.0380 ca         1 707       0.169100
     13 O3          -3.6680     1.8610     0.0150 os         1 707      -0.327100
     14 C9          -3.8570     3.2810    -0.1120 c3         1 707       0.149900
     15 C10         -1.2300     2.0430    -0.0610 ca         1 707      -0.216000
     16 C11          0.0270     1.4150    -0.0340 ca         1 707      -0.035000
     17 H2           4.8240     1.3450     0.7810 hc         1 707       0.019700
     18 H3           4.7790     1.1770    -1.0510 hc         1 707       0.019700
     19 H4           4.0770    -1.1510    -0.7910 h1         1 707       0.059700
     20 H5           4.1200    -0.9880     0.9820 h1         1 707       0.059700
     21 H6           2.4550     1.0720    -0.0620 hn         1 707       0.300500
     22 H7          -1.0180    -1.8290     0.2930 ha         1 707       0.153000
     23 H8          -4.9270     3.5230    -0.1080 h1         1 707       0.041700
     24 H9          -3.3850     3.8140     0.7230 h1         1 707       0.041700
     25 H10         -3.4290     3.6490    -1.0530 h1         1 707       0.041700
     26 H11         -1.2640     3.1240    -0.1610 ha         1 707       0.115000
     27 H12          0.9140     2.0390    -0.1140 ha         1 707       0.122000
     28 O4           6.9330    -0.0630     1.0160 o          1 707      -0.732000
@<TRIPOS>BOND
     1     1     2 1   
     2     2     3 1   
     3     2    28 1   
     4     3     4 1   
     5     3    17 1   
     6     3    18 1   
     7     4     5 1   
     8     4    19 1   
     9     4    20 1   
    10     5     6 1   
    11     5    21 1   
    12     6     7 2   
    13     6     8 1   
    14     8     9 ar  
    15     8    16 ar  
    16     9    10 ar  
    17     9    22 1   
    18    10    11 1   
    19    10    12 ar  
    20    12    13 1   
    21    12    15 ar  
    22    13    14 1   
    23    14    23 1   
    24    14    24 1   
    25    14    25 1   
    26    15    16 ar  
    27    15    26 1   
    28    16    27 1   
@<TRIPOS>SUBSTRUCTURE
     1 707         1 TEMP              0 ****  ****    0 ROOT
