@<TRIPOS>MOLECULE
708
   64    67     1     0     0
SMALL
No Charge or Current Charge


@<TRIPOS>ATOM
      1 Cl38         1.9900     2.2360    -0.8290 cl         1 708      -0.222000
      2 C37          1.6720     0.6570    -0.1070 ca         1 708       0.149000
      3 C25          2.7230    -0.1920     0.3200 ca         1 708      -0.032800
      4 C26          4.1560     0.2200     0.2010 ce         1 708      -0.231200
      5 C27          5.2580    -0.5770     0.0900 cf         1 708      -0.076200
      6 C28          6.6840    -0.2000    -0.0280 ca         1 708      -0.121800
      7 C33          7.6580    -1.2160    -0.1370 ca         1 708      -0.059000
      8 C32          9.0340    -0.9070    -0.2530 ca         1 708      -0.144600
      9 C34         10.0710    -2.0120    -0.3700 c          1 708       0.714600
     10 O36         11.2500    -1.7000    -0.4680 o          1 708      -0.718500
     11 O35          9.6930    -3.1750    -0.3620 o          1 708      -0.718500
     12 C31          9.4230     0.4510    -0.2570 ca         1 708      -0.066000
     13 C30          8.4610     1.4670    -0.1490 ca         1 708      -0.155000
     14 C29          7.0990     1.1470    -0.0350 ca         1 708      -0.108000
     15 C24          2.3950    -1.4460     0.8770 ca         1 708      -0.073000
     16 C23          1.0530    -1.8440     1.0010 ca         1 708      -0.139000
     17 C39          0.3320     0.2550     0.0170 ca         1 708      -0.205000
     18 C22          0.0170    -1.0010     0.5740 ca         1 708       0.130100
     19 O21         -1.2800    -1.4440     0.7180 os         1 708      -0.337100
     20 C20         -2.4000    -0.6570     0.2890 c3         1 708       0.248900
     21 C19         -3.6530    -1.4380     0.5600 cc         1 708      -0.242300
     22 C4          -4.0000    -2.6850     0.1460 cd         1 708       0.217300
     23 C2          -3.2590    -3.6760    -0.7240 c3         1 708      -0.104000
     24 C3          -2.8480    -4.9300     0.0770 c3         1 708      -0.086100
     25 C1          -4.0690    -4.0400    -1.9880 c3         1 708      -0.086100
     26 C7          -4.7760    -1.0040     1.2990 cc         1 708       0.342300
     27 N6          -5.7510    -1.8930     1.3650 nd         1 708      -0.412300
     28 O5          -5.2480    -3.0070     0.6140 os         1 708      -0.071700
     29 C8          -4.9060     0.3590     1.9260 c3         1 708      -0.269700
     30 S9          -5.5950     1.5910     0.7790 s6         1 708      -0.115600
     31 O10         -5.8030     2.8880     1.7770 oh         1 708      -0.739700
     32 C11         -4.3790     1.9550    -0.5760 ca         1 708       0.048500
     33 C17         -4.6500     1.4810    -1.8810 ca         1 708       0.178000
     34 Cl18        -6.1160     0.5610    -2.2260 cl         1 708      -0.163500
     35 C16         -3.7470     1.7130    -2.9310 ca         1 708      -0.111000
     36 C15         -2.5570     2.4190    -2.6980 ca         1 708      -0.062000
     37 C14         -2.2710     2.8880    -1.4070 ca         1 708      -0.111000
     38 C12         -3.1680     2.6580    -0.3480 ca         1 708       0.178000
     39 Cl13        -2.6930     3.2330     1.2520 cl         1 708      -0.163500
     40 H26          4.3080     1.2970     0.2010 ha         1 708       0.184000
     41 H27          5.0890    -1.6550     0.0730 ha         1 708       0.166000
     42 H33          7.3400    -2.2570    -0.1320 ha         1 708       0.127000
     43 H31         10.4730     0.7240    -0.3450 ha         1 708       0.129000
     44 H30          8.7720     2.5090    -0.1530 ha         1 708       0.088000
     45 H29          6.3800     1.9560     0.0470 ha         1 708       0.087000
     46 H24          3.1760    -2.1130     1.2300 ha         1 708       0.128000
     47 H23          0.8130    -2.8120     1.4340 ha         1 708       0.128000
     48 H39         -0.4420     0.9320    -0.3250 ha         1 708       0.117000
     49 H20         -2.4160     0.2950     0.8290 h1         1 708       0.038200
     50 H20A        -2.3360    -0.4470    -0.7870 h1         1 708       0.038200
     51 H2          -2.3320    -3.2030    -1.0710 hc         1 708       0.066700
     52 H3          -3.7300    -5.4700     0.4420 hc         1 708       0.042700
     53 H3A         -2.2590    -5.6140    -0.5470 hc         1 708       0.042700
     54 H3B         -2.2350    -4.6500     0.9430 hc         1 708       0.042700
     55 H1          -4.3230    -3.1370    -2.5560 hc         1 708       0.042700
     56 H1A         -3.4890    -4.7020    -2.6430 hc         1 708       0.042700
     57 H1B         -5.0020    -4.5520    -1.7240 hc         1 708       0.042700
     58 H8          -5.5860     0.2920     2.7850 h1         1 708       0.079200
     59 H8A         -3.9340     0.7160     2.2860 h1         1 708       0.079200
     60 HO10        -5.4610     2.6310     2.6620 ho         1 708       0.410000
     61 H16         -3.9700     1.3400    -3.9280 ha         1 708       0.142000
     62 H15         -1.8570     2.5960    -3.5130 ha         1 708       0.133000
     63 H14         -1.3430     3.4250    -1.2210 ha         1 708       0.142000
     64 HS9         -6.8520     1.1420     0.3600 hs         1 708       0.403800
@<TRIPOS>BOND
     1     1     2 1   
     2     2     3 ar  
     3     2    17 ar  
     4     3     4 1   
     5     3    15 ar  
     6     4     5 2   
     7     4    40 1   
     8     5     6 1   
     9     5    41 1   
    10     6     7 ar  
    11     6    14 ar  
    12     7     8 ar  
    13     7    42 1   
    14     8     9 1   
    15     8    12 ar  
    16     9    10 1   
    17     9    11 1   
    18    12    13 ar  
    19    12    43 1   
    20    13    14 ar  
    21    13    44 1   
    22    14    45 1   
    23    15    16 ar  
    24    15    46 1   
    25    16    18 ar  
    26    16    47 1   
    27    17    18 ar  
    28    17    48 1   
    29    18    19 1   
    30    19    20 1   
    31    20    21 1   
    32    20    49 1   
    33    20    50 1   
    34    21    22 2   
    35    21    26 1   
    36    22    23 1   
    37    22    28 1   
    38    23    24 1   
    39    23    25 1   
    40    23    51 1   
    41    24    52 1   
    42    24    53 1   
    43    24    54 1   
    44    25    55 1   
    45    25    56 1   
    46    25    57 1   
    47    26    27 2   
    48    26    29 1   
    49    27    28 1   
    50    29    30 1   
    51    29    58 1   
    52    29    59 1   
    53    30    31 1   
    54    30    32 1   
    55    30    64 1   
    56    31    60 1   
    57    32    33 ar  
    58    32    38 ar  
    59    33    34 1   
    60    33    35 ar  
    61    35    36 ar  
    62    35    61 1   
    63    36    37 ar  
    64    36    62 1   
    65    37    38 ar  
    66    37    63 1   
    67    38    39 1   
@<TRIPOS>SUBSTRUCTURE
     1 708         1 TEMP              0 ****  ****    0 ROOT
