@<TRIPOS>MOLECULE
708
   64    67     1     0     0
SMALL
bcc


@<TRIPOS>ATOM
      1 CL38         2.1790     1.2990    -2.1650 cl         1 708      -0.130400
      2 C37          1.8660     0.2440    -0.8220 ca         1 708       0.057400
      3 C25          2.9130    -0.1980    -0.0140 ca         1 708      -0.032800
      4 C26          4.3000     0.2020    -0.2410 ce         1 708      -0.181200
      5 C27          5.3700    -0.4680     0.2070 cf         1 708      -0.026200
      6 C28          6.7710    -0.0950     0.0180 ca         1 708      -0.121800
      7 C33          7.7580    -0.9750     0.4670 ca         1 708      -0.077000
      8 C32          9.1140    -0.7000     0.3230 ca         1 708      -0.144600
      9 C34         10.1640    -1.6820     0.8320 c          1 708       0.925200
     10 O36         11.3550    -1.3570     0.6680 o          1 708      -0.823800
     11 O35          9.7390    -2.7230     1.3680 o          1 708      -0.823800
     12 C31          9.4870     0.4910    -0.2910 ca         1 708      -0.084000
     13 C30          8.5210     1.3830    -0.7430 ca         1 708      -0.173000
     14 C29          7.1750     1.0990    -0.5900 ca         1 708      -0.126000
     15 C24          2.5490    -1.0470     1.0420 ca         1 708      -0.091000
     16 C23          1.2500    -1.4440     1.2620 ca         1 708      -0.157000
     17 C39          0.5450    -0.1380    -0.6270 ca         1 708      -0.223000
     18 C22          0.2290    -0.9930     0.4220 ca         1 708       0.130100
     19 O21         -1.0140    -1.4230     0.6980 os         1 708      -0.313900
     20 C20         -2.0760    -0.9760    -0.1380 c3         1 708       0.225700
     21 C19         -3.3480    -1.5300     0.3790 cc         1 708      -0.372900
     22 C4          -4.0310    -2.6140    -0.0710 cd         1 708       0.327000
     23 C2          -3.7910    -3.5620    -1.1950 c3         1 708      -0.104000
     24 C3          -3.6970    -5.0070    -0.7040 c3         1 708      -0.086100
     25 C1          -4.8550    -3.4070    -2.2840 c3         1 708      -0.086100
     26 C7          -4.1340    -1.0620     1.4720 cc         1 708       0.407600
     27 N6          -5.1820    -1.8210     1.6430 nd         1 708      -0.412300
     28 O5          -5.1190    -2.7860     0.6750 os         1 708      -0.116100
     29 C8          -3.9600     0.1550     2.2790 c3         1 708      -0.158900
     30 S9          -5.1630     1.6090     1.6980 s6         1 708      -0.226400
     31 O10         -6.4900     2.7080     0.9590 oh         1 708      -0.700700
     32 C11         -4.2900     1.7700     0.1580 ca         1 708       0.048500
     33 C17         -4.6910     1.1660    -1.0330 ca         1 708       0.086400
     34 CL18        -6.1070     0.1890    -1.0970 cl         1 708      -0.071900
     35 C16         -3.9560     1.3340    -2.1950 ca         1 708      -0.129000
     36 C15         -2.8210     2.1300    -2.1830 ca         1 708      -0.080000
     37 C14         -2.4130     2.7550    -1.0180 ca         1 708      -0.129000
     38 C12         -3.1510     2.5700     0.1410 ca         1 708       0.086400
     39 CL13        -2.6260     3.3430     1.5930 cl         1 708      -0.071900
     40 H26          4.4470     1.1000    -0.8290 ha         1 708       0.134000
     41 H27          5.2220    -1.3950     0.7530 ha         1 708       0.116000
     42 H33          7.4600    -1.9010     0.9430 ha         1 708       0.145000
     43 H31         10.5370     0.7250    -0.4110 ha         1 708       0.147000
     44 H30          8.8210     2.3100    -1.2150 ha         1 708       0.106000
     45 H29          6.4420     1.8150    -0.9400 ha         1 708       0.105000
     46 H24          3.3130    -1.3950     1.7250 ha         1 708       0.146000
     47 H23          1.0120    -2.0970     2.0930 ha         1 708       0.146000
     48 H39         -0.2080     0.2330    -1.3080 ha         1 708       0.135000
     49 H20         -2.1030     0.1170    -0.1410 h1         1 708       0.038200
     50 H20A        -1.9100    -1.3000    -1.1710 h1         1 708       0.038200
     51 H2          -2.8230    -3.2880    -1.6230 hc         1 708       0.066700
     52 H3          -4.6480    -5.3530    -0.2980 hc         1 708       0.042700
     53 H3A         -3.4320    -5.6600    -1.5350 hc         1 708       0.042700
     54 H3B         -2.9350    -5.1220     0.0670 hc         1 708       0.042700
     55 H1          -4.9180    -2.3790    -2.6390 hc         1 708       0.042700
     56 H1A         -4.6060    -4.0420    -3.1340 hc         1 708       0.042700
     57 H1B         -5.8400    -3.7030    -1.9220 hc         1 708       0.042700
     58 H8          -4.2690    -0.0050     3.3130 h1         1 708       0.079200
     59 H8A         -2.9310     0.5120     2.2810 h1         1 708       0.079200
     60 HO10        -6.2600     3.6050     1.2290 ho         1 708       0.371000
     61 H16         -4.2750     0.8500    -3.1070 ha         1 708       0.160000
     62 H15         -2.2520     2.2640    -3.0930 ha         1 708       0.151000
     63 H14         -1.5350     3.3850    -1.0050 ha         1 708       0.160000
     64 HS9         -6.0970     0.6640     1.5320 hs         1 708       0.403800
@<TRIPOS>BOND
     1     1     2 1   
     2     2     3 ar  
     3     2    17 ar  
     4     3     4 1   
     5     3    15 ar  
     6     4     5 2   
     7     4    40 1   
     8     5     6 1   
     9     5    41 1   
    10     6     7 ar  
    11     6    14 ar  
    12     7     8 ar  
    13     7    42 1   
    14     8     9 1   
    15     8    12 ar  
    16     9    10 1   
    17     9    11 1   
    18    12    13 ar  
    19    12    43 1   
    20    13    14 ar  
    21    13    44 1   
    22    14    45 1   
    23    15    16 ar  
    24    15    46 1   
    25    16    18 ar  
    26    16    47 1   
    27    17    18 ar  
    28    17    48 1   
    29    18    19 1   
    30    19    20 1   
    31    20    21 1   
    32    20    49 1   
    33    20    50 1   
    34    21    22 2   
    35    21    26 1   
    36    22    23 1   
    37    22    28 1   
    38    23    24 1   
    39    23    25 1   
    40    23    51 1   
    41    24    52 1   
    42    24    53 1   
    43    24    54 1   
    44    25    55 1   
    45    25    56 1   
    46    25    57 1   
    47    26    27 2   
    48    26    29 1   
    49    27    28 1   
    50    29    30 1   
    51    29    58 1   
    52    29    59 1   
    53    30    31 1   
    54    30    32 1   
    55    30    64 1   
    56    31    60 1   
    57    32    33 ar  
    58    32    38 ar  
    59    33    34 1   
    60    33    35 ar  
    61    35    36 ar  
    62    35    61 1   
    63    36    37 ar  
    64    36    62 1   
    65    37    38 ar  
    66    37    63 1   
    67    38    39 1   
@<TRIPOS>SUBSTRUCTURE
     1 708         1 TEMP              0 ****  ****    0 ROOT
