@<TRIPOS>MOLECULE
709
   41    43     1     0     0
SMALL
bcc


@<TRIPOS>ATOM
      1 C1          -3.1710     1.6950    -0.4740 ca         1 709      -0.017000
      2 C2          -4.3900     1.1240    -0.0460 ca         1 709      -0.124000
      3 C3          -4.4390    -0.1530     0.4370 ca         1 709      -0.110000
      4 C4          -3.2630    -0.9350     0.5170 ca         1 709      -0.147900
      5 C5          -2.0710    -0.4060     0.0890 ca         1 709      -0.065000
      6 C6          -1.9910     0.9080    -0.4190 ca         1 709      -0.058000
      7 C7          -0.7690     1.4810    -0.8730 ca         1 709       0.070600
      8 C8          -0.7380     2.7760    -1.3210 ca         1 709      -0.125000
      9 C9          -1.9100     3.5560    -1.3440 ca         1 709      -0.104000
     10 C10         -3.1040     3.0270    -0.9410 ca         1 709      -0.130000
     11 C11         -3.2930    -2.3250     1.0540 ce         1 709       0.661800
     12 N12         -4.3260    -2.5960     1.9040 nv         1 709      -0.963800
     13 N13         -2.4060    -3.1560     0.6570 n2         1 709      -0.832100
     14 N14          0.3970     0.6930    -0.8680 ns         1 709      -0.494100
     15 C15          1.5480     1.0310    -0.2350 c          1 709       0.684700
     16 C16          2.6620     0.0520    -0.4310 ca         1 709      -0.121600
     17 O17          1.6810     2.0480     0.4200 o          1 709      -0.570100
     18 C18          3.0000    -0.2990    -1.7370 ca         1 709      -0.144000
     19 C19          4.0880    -1.1230    -1.9680 ca         1 709      -0.096000
     20 C20          4.8310    -1.6010    -0.9010 ca         1 709      -0.205000
     21 C21          4.4820    -1.2580     0.4010 ca         1 709       0.129100
     22 C22          3.3850    -0.4260     0.6650 ca         1 709      -0.049300
     23 C23          3.0300    -0.1150     2.0910 c3         1 709      -0.041800
     24 O24          5.1820    -1.7060     1.4630 oh         1 709      -0.492100
     25 H2          -5.2950     1.7150    -0.1090 ha         1 709       0.134000
     26 H3          -5.3910    -0.5670     0.7420 ha         1 709       0.137000
     27 H5          -1.1800    -1.0140     0.1650 ha         1 709       0.153000
     28 H8           0.1890     3.2010    -1.6820 ha         1 709       0.147000
     29 H9          -1.8570     4.5750    -1.7030 ha         1 709       0.136000
     30 H10         -4.0090     3.6210    -0.9750 ha         1 709       0.134000
     31 H121        -4.3000    -3.4760     2.3940 hn         1 709       0.405800
     32 H122        -4.7030    -1.8420     2.4550 hn         1 709       0.405800
     33 H13         -2.5110    -4.0530     1.1230 hn         1 709       0.371400
     34 H14          0.3530    -0.2140    -1.3080 hn         1 709       0.332500
     35 H18          2.4300     0.0890    -2.5720 ha         1 709       0.138000
     36 H19          4.3660    -1.3890    -2.9780 ha         1 709       0.135000
     37 H20          5.6850    -2.2440    -1.0800 ha         1 709       0.133000
     38 H231         3.6540     0.6860     2.4920 hc         1 709       0.052367
     39 H232         1.9940     0.1960     2.2030 hc         1 709       0.052367
     40 H233         3.1750    -0.9850     2.7290 hc         1 709       0.052367
     41 H24          5.9030    -2.2770     1.1740 ho         1 709       0.426000
@<TRIPOS>BOND
     1     1     2 ar  
     2     1     6 ar  
     3     1    10 ar  
     4     2     3 ar  
     5     2    25 1   
     6     3     4 ar  
     7     3    26 1   
     8     4     5 ar  
     9     4    11 1   
    10     5     6 ar  
    11     5    27 1   
    12     6     7 ar  
    13     7     8 ar  
    14     7    14 1   
    15     8     9 ar  
    16     8    28 1   
    17     9    10 ar  
    18     9    29 1   
    19    10    30 1   
    20    11    12 1   
    21    11    13 2   
    22    12    31 1   
    23    12    32 1   
    24    13    33 1   
    25    14    15 1   
    26    14    34 1   
    27    15    16 1   
    28    15    17 2   
    29    16    18 ar  
    30    16    22 ar  
    31    18    19 ar  
    32    18    35 1   
    33    19    20 ar  
    34    19    36 1   
    35    20    21 ar  
    36    20    37 1   
    37    21    22 ar  
    38    21    24 1   
    39    22    23 1   
    40    23    38 1   
    41    23    39 1   
    42    23    40 1   
    43    24    41 1   
@<TRIPOS>SUBSTRUCTURE
     1 709         1 TEMP              0 ****  ****    0 ROOT
