@<TRIPOS>MOLECULE
709
   41    43     1     0     0
SMALL
No Charge or Current Charge


@<TRIPOS>ATOM
      1 C1          -3.2450     1.7650    -0.3370 ca         1 709      -0.017000
      2 C2          -4.5100     1.1660    -0.2180 ca         1 709      -0.106000
      3 C3          -4.6270    -0.2130     0.0080 ca         1 709      -0.092000
      4 C4          -3.4740    -1.0220     0.1350 ca         1 709      -0.147900
      5 C5          -2.2040    -0.4130    -0.0070 ca         1 709      -0.047000
      6 C6          -2.0730     0.9780    -0.2390 ca         1 709      -0.058000
      7 C7          -0.7990     1.5960    -0.3650 ca         1 709      -0.022000
      8 C8          -0.7310     2.9870    -0.6030 ca         1 709      -0.107000
      9 C9          -1.9000     3.7580    -0.6970 ca         1 709      -0.086000
     10 C10         -3.1540     3.1490    -0.5630 ca         1 709      -0.112000
     11 C11         -3.5790    -2.5040     0.3480 ce         1 709       0.661800
     12 N12         -4.7100    -2.9900     0.9030 nv         1 709      -1.074200
     13 N13         -2.6260    -3.3110     0.1250 n2         1 709      -0.832100
     14 N14          0.3830     0.8030    -0.2890 ns         1 709      -0.168000
     15 C15          1.7040     1.1240     0.0010 c          1 709       0.617700
     16 C16          2.6900    -0.0340    -0.1420 ca         1 709      -0.121600
     17 O17          2.0520     2.2570     0.3130 o          1 709      -0.570100
     18 C18          2.3760    -1.0950    -1.0310 ca         1 709      -0.126000
     19 C19          3.2550    -2.1690    -1.2220 ca         1 709      -0.078000
     20 C20          4.4710    -2.2090    -0.5330 ca         1 709      -0.187000
     21 C21          4.8090    -1.1810     0.3570 ca         1 709       0.129100
     22 C22          3.9280    -0.0870     0.5730 ca         1 709      -0.049300
     23 C23          4.3080     0.9960     1.5950 c3         1 709      -0.041800
     24 O24          6.0090    -1.2630     1.0060 oh         1 709      -0.531100
     25 H2          -5.4100     1.7700    -0.3070 ha         1 709       0.116000
     26 H3          -5.6220    -0.6470     0.0720 ha         1 709       0.119000
     27 H5          -1.3200    -1.0390     0.0790 ha         1 709       0.135000
     28 H8           0.2230     3.4880    -0.7390 ha         1 709       0.129000
     29 H9          -1.8320     4.8280    -0.8810 ha         1 709       0.118000
     30 H10         -4.0550     3.7540    -0.6400 ha         1 709       0.116000
     31 H121        -4.6070    -3.8520     1.4250 hn         1 709       0.461000
     32 H122        -5.3120    -2.2980     1.3330 hn         1 709       0.461000
     33 H13         -3.0070    -4.2630     0.1430 hn         1 709       0.371400
     34 H14          0.2340    -0.1770    -0.4900 hn         1 709       0.166000
     35 H18          1.4560    -1.0900    -1.6110 ha         1 709       0.120000
     36 H19          2.9960    -2.9670    -1.9160 ha         1 709       0.117000
     37 H20          5.1470    -3.0450    -0.6950 ha         1 709       0.115000
     38 H231         4.6220     1.9170     1.0910 hc         1 709       0.052367
     39 H232         3.4640     1.2360     2.2520 hc         1 709       0.052367
     40 H233         5.1260     0.6970     2.2580 hc         1 709       0.052367
     41 H24          6.4630    -2.0840     0.7190 ho         1 709       0.465000
@<TRIPOS>BOND
     1     1     2 ar  
     2     1     6 ar  
     3     1    10 ar  
     4     2     3 ar  
     5     2    25 1   
     6     3     4 ar  
     7     3    26 1   
     8     4     5 ar  
     9     4    11 1   
    10     5     6 ar  
    11     5    27 1   
    12     6     7 ar  
    13     7     8 ar  
    14     7    14 1   
    15     8     9 ar  
    16     8    28 1   
    17     9    10 ar  
    18     9    29 1   
    19    10    30 1   
    20    11    12 1   
    21    11    13 2   
    22    12    31 1   
    23    12    32 1   
    24    13    33 1   
    25    14    15 1   
    26    14    34 1   
    27    15    16 1   
    28    15    17 2   
    29    16    18 ar  
    30    16    22 ar  
    31    18    19 ar  
    32    18    35 1   
    33    19    20 ar  
    34    19    36 1   
    35    20    21 ar  
    36    20    37 1   
    37    21    22 ar  
    38    21    24 1   
    39    22    23 1   
    40    23    38 1   
    41    23    39 1   
    42    23    40 1   
    43    24    41 1   
@<TRIPOS>SUBSTRUCTURE
     1 709         1 TEMP              0 ****  ****    0 ROOT
