@<TRIPOS>MOLECULE
70A
   81    87     1     0     0
SMALL
No Charge or Current Charge


@<TRIPOS>ATOM
      1 C13          7.9850    37.9460    24.3230 c          1 70A       0.599100
      2 C18          8.9730    32.7610    27.5950 ca         1 70A      -0.036000
      3 C17          8.5700    33.1120    28.9010 ca         1 70A      -0.169000
      4 C16          8.2260    34.4460    29.1850 ca         1 70A       0.067000
      5 C15          8.2780    35.4240    28.1800 ca         1 70A      -0.210000
      6 C19          9.0200    33.7460    26.5920 ca         1 70A      -0.181000
      7 C20          7.8350    34.7690    30.4920 ca         1 70A      -0.219000
      8 C21          7.7970    33.7560    31.4650 ca         1 70A       0.380900
      9 C23          8.4940    32.1850    29.9610 ca         1 70A       0.617900
     10 C11          1.7770    34.8420    27.4200 c3         1 70A      -0.086100
     11 C27          6.1570    39.3790    22.0360 ca         1 70A      -0.039300
     12 C1           2.1420    35.3830    26.0160 c3         1 70A      -0.046400
     13 C2           1.1690    36.5170    25.5790 c3         1 70A       0.182600
     14 C3           3.6290    35.7940    25.9280 ca         1 70A      -0.072300
     15 C4           4.1610    36.6710    26.8990 ca         1 70A      -0.087000
     16 C5           5.4950    37.1040    26.8340 ca         1 70A      -0.094000
     17 C6           6.3310    36.6760    25.7890 ca         1 70A      -0.121300
     18 C7           5.8120    35.7970    24.8210 ca         1 70A      -0.092000
     19 C8           4.4760    35.3500    24.8760 ca         1 70A      -0.067300
     20 C9           3.9900    34.4060    23.7780 c3         1 70A      -0.048800
     21 C10          7.7780    37.1740    25.6890 c3         1 70A       0.208800
     22 N12          8.7170    36.0240    25.8640 nu         1 70A      -0.957200
     23 C14          8.6670    35.0730    26.8780 ca         1 70A       0.356000
     24 N22          8.1230    32.4710    31.2030 nb         1 70A      -0.770000
     25 O24          8.5180    37.3960    23.3600 o          1 70A      -0.622100
     26 N25          7.4840    39.2670    24.1980 n          1 70A      -0.398800
     27 C26          7.3530    39.8910    22.8580 c3         1 70A       0.142300
     28 C28          6.1410    39.4530    20.6180 ca         1 70A      -0.058300
     29 C29          5.0090    38.9870    19.9160 ca         1 70A      -0.065000
     30 C30          3.9120    38.4370    20.5980 ca         1 70A      -0.150000
     31 C31          3.9130    38.3680    21.9980 ca         1 70A       0.003000
     32 C32          5.0340    38.8410    22.7050 ca         1 70A      -0.118000
     33 N33          2.8070    37.7730    22.6580 ns         1 70A      -0.151000
     34 O34          1.4550    36.8870    24.2120 os         1 70A      -0.472100
     35 C35          2.4040    37.8460    23.9770 c          1 70A       0.648100
     36 O36          2.8250    38.6360    24.8110 o          1 70A      -0.514000
     37 C37          7.0660    40.0640    25.3760 c3         1 70A       0.089300
     38 C39          7.3010    40.0300    19.8330 cx         1 70A      -0.120000
     39 C40          7.3200    41.5210    19.8840 cc         1 70A       0.442800
     40 N41          8.2950    42.3510    19.3970 na         1 70A      -0.234700
     41 N42          7.9970    43.6520    19.6250 nc         1 70A      -0.199800
     42 N43          6.8530    43.6150    20.2430 nd         1 70A      -0.043000
     43 N44          6.4160    42.3250    20.4160 nd         1 70A      -0.381000
     44 C45          7.7510    39.3680    18.5390 cx         1 70A      -0.106900
     45 C46          8.6200    39.2750    19.7670 cx         1 70A      -0.106900
     46 H62          9.2530    31.7400    27.3490 ha         1 70A       0.106000
     47 H61          8.0170    36.4510    28.4120 ha         1 70A       0.116000
     48 H63          9.3280    33.4710    25.5870 ha         1 70A       0.114000
     49 H64          7.5600    35.7850    30.7600 ha         1 70A       0.119000
     50 H65          7.4950    33.9820    32.4870 h4         1 70A       0.012100
     51 H59          2.4780    34.0550    27.7230 hc         1 70A       0.041700
     52 H57          1.7960    35.6340    28.1770 hc         1 70A       0.041700
     53 H58          0.7680    34.4100    27.4140 hc         1 70A       0.041700
     54 H47          1.9470    34.5450    25.3390 hc         1 70A       0.064700
     55 H48          1.2390    37.3740    26.2630 h1         1 70A       0.069200
     56 H49          0.1420    36.1330    25.6470 h1         1 70A       0.069200
     57 H50          3.5350    37.0430    27.7050 ha         1 70A       0.116000
     58 H51          5.8710    37.7850    27.5950 ha         1 70A       0.111000
     59 H52          6.4570    35.4600    24.0120 ha         1 70A       0.122000
     60 H55          3.7230    33.4260    24.1920 hc         1 70A       0.044700
     61 H54          3.1100    34.8090    23.2630 hc         1 70A       0.044700
     62 H53          4.7570    34.2360    23.0140 hc         1 70A       0.044700
     63 H56          7.9610    37.8930    26.4970 h1         1 70A       0.077700
     64 H60          9.1360    35.6910    24.9930 hn         1 70A       0.504000
     65 H67          8.2880    39.7170    22.3150 h1         1 70A       0.071700
     66 H66          7.2560    40.9780    22.9670 h1         1 70A       0.071700
     67 H68          4.9770    39.0480    18.8310 ha         1 70A       0.115000
     68 H69          3.0580    38.0720    20.0330 ha         1 70A       0.118000
     69 H70          5.0440    38.7690    23.7860 ha         1 70A       0.141000
     70 H71          2.2860    37.1130    22.0980 hn         1 70A       0.167000
     71 H74          7.8840    40.1120    26.1050 h1         1 70A       0.050033
     72 H72          6.8060    41.0880    25.0800 h1         1 70A       0.050033
     73 H73          6.1850    39.6070    25.8440 h1         1 70A       0.050033
     74 H76          8.4500    30.3370    30.6660 hn         1 70A       0.467000
     75 H75          8.6690    30.4420    28.9630 hn         1 70A       0.467000
     76 H77          9.1430    42.0690    18.9220 hn         1 70A       0.384000
     77 H78          8.0910    40.0010    17.7220 hc         1 70A       0.084950
     78 H79          7.2530    38.4560    18.2180 hc         1 70A       0.084950
     79 H81          8.6770    38.3110    20.2670 hc         1 70A       0.084950
     80 H80          9.5480    39.8400    19.7790 hc         1 70A       0.084950
     81 N38          8.7660    30.8780    29.8710 nv         1 70A      -1.050900
@<TRIPOS>BOND
     1     1    21 1   
     2     1    25 2   
     3     1    26 1   
     4     2     3 ar  
     5     2     6 ar  
     6     2    46 1   
     7     3     4 ar  
     8     3     9 ar  
     9     4     5 ar  
    10     4     7 ar  
    11     5    23 ar  
    12     5    47 1   
    13     6    23 ar  
    14     6    48 1   
    15     7     8 ar  
    16     7    49 1   
    17     8    24 ar  
    18     8    50 1   
    19     9    24 ar  
    20     9    81 1   
    21    10    12 1   
    22    10    51 1   
    23    10    52 1   
    24    10    53 1   
    25    11    27 1   
    26    11    28 ar  
    27    11    32 ar  
    28    12    13 1   
    29    12    14 1   
    30    12    54 1   
    31    13    34 1   
    32    13    55 1   
    33    13    56 1   
    34    14    15 ar  
    35    14    19 ar  
    36    15    16 ar  
    37    15    57 1   
    38    16    17 ar  
    39    16    58 1   
    40    17    18 ar  
    41    17    21 1   
    42    18    19 ar  
    43    18    59 1   
    44    19    20 1   
    45    20    60 1   
    46    20    61 1   
    47    20    62 1   
    48    21    22 1   
    49    21    63 1   
    50    22    23 1   
    51    22    64 1   
    52    26    27 1   
    53    26    37 1   
    54    27    65 1   
    55    27    66 1   
    56    28    29 ar  
    57    28    38 1   
    58    29    30 ar  
    59    29    67 1   
    60    30    31 ar  
    61    30    68 1   
    62    31    32 ar  
    63    31    33 1   
    64    32    69 1   
    65    33    35 1   
    66    33    70 1   
    67    34    35 1   
    68    35    36 2   
    69    37    71 1   
    70    37    72 1   
    71    37    73 1   
    72    38    39 1   
    73    38    44 1   
    74    38    45 1   
    75    39    40 1   
    76    39    43 2   
    77    40    41 1   
    78    40    76 1   
    79    41    42 2   
    80    42    43 1   
    81    44    45 1   
    82    44    77 1   
    83    44    78 1   
    84    45    79 1   
    85    45    80 1   
    86    74    81 1   
    87    75    81 1   
@<TRIPOS>SUBSTRUCTURE
     1 70A         1 TEMP              0 ****  ****    0 ROOT
