@<TRIPOS>MOLECULE
70A
   81    87     1     0     0
SMALL
abcg2


@<TRIPOS>ATOM
      1 C13          7.7420    37.7880    24.3470 c          1 70A       0.599100
      2 C18          9.4640    32.9410    27.5220 ca         1 70A      -0.036000
      3 C17          8.9570    33.1820    28.8210 ca         1 70A      -0.169000
      4 C16          8.2610    34.4000    29.0540 ca         1 70A       0.067000
      5 C15          8.0820    35.3200    28.0030 ca         1 70A      -0.210000
      6 C19          9.2840    33.8450    26.5120 ca         1 70A      -0.181000
      7 C20          7.7690    34.6420    30.3650 ca         1 70A      -0.219000
      8 C21          7.9860    33.7030    31.3330 ca         1 70A       0.380900
      9 C23          9.1050    32.2730    29.9180 ca         1 70A       0.617900
     10 C11          1.3740    35.3580    27.4720 c3         1 70A      -0.086100
     11 C27          6.1670    39.2160    22.0430 ca         1 70A      -0.039300
     12 C1           1.9000    35.5980    26.0520 c3         1 70A      -0.046400
     13 C2           1.0790    36.7170    25.4000 c3         1 70A       0.182600
     14 C3           3.3850    35.9090    25.9920 ca         1 70A      -0.072300
     15 C4           3.9420    36.8210    26.8870 ca         1 70A      -0.087000
     16 C5           5.2760    37.2000    26.8080 ca         1 70A      -0.094000
     17 C6           6.0910    36.6630    25.8210 ca         1 70A      -0.121300
     18 C7           5.5470    35.7370    24.9370 ca         1 70A      -0.092000
     19 C8           4.2100    35.3460    25.0010 ca         1 70A      -0.067300
     20 C9           3.6990    34.3400    24.0020 c3         1 70A      -0.048800
     21 C10          7.5600    37.0650    25.6920 c3         1 70A       0.208800
     22 N12          8.4720    35.9440    25.6920 nu         1 70A      -0.957200
     23 C14          8.5840    35.0650    26.7350 ca         1 70A       0.356000
     24 N22          8.6360    32.5290    31.1310 nb         1 70A      -0.770000
     25 O24          8.1810    37.1610    23.3800 o          1 70A      -0.622100
     26 N25          7.3470    39.0730    24.2420 n          1 70A      -0.398800
     27 C26          7.3360    39.6580    22.9030 c3         1 70A       0.142300
     28 C28          6.2000    39.3910    20.6510 ca         1 70A      -0.058300
     29 C29          5.1030    38.9810    19.8970 ca         1 70A      -0.065000
     30 C30          3.9870    38.4080    20.4890 ca         1 70A      -0.150000
     31 C31          3.9590    38.2340    21.8700 ca         1 70A       0.003000
     32 C32          5.0520    38.6370    22.6350 ca         1 70A      -0.118000
     33 N33          2.8530    37.5940    22.4580 ns         1 70A      -0.151000
     34 O34          1.4450    36.8800    24.0130 os         1 70A      -0.472100
     35 C35          2.3940    37.7990    23.7230 c          1 70A       0.648100
     36 O36          2.7550    38.6820    24.4750 o          1 70A      -0.514000
     37 C37          6.8140    39.8830    25.3330 c3         1 70A       0.089300
     38 C39          7.3910    40.0050    19.9750 cx         1 70A      -0.120000
     39 C40          7.5260    41.4580    20.1680 cc         1 70A       0.442800
     40 N41          8.5630    42.2320    19.7970 na         1 70A      -0.234700
     41 N42          8.3120    43.5070    20.1360 nc         1 70A      -0.199800
     42 N43          7.1560    43.5060    20.6990 nd         1 70A      -0.043000
     43 N44          6.6360    42.2550    20.7380 nd         1 70A      -0.381000
     44 C45          7.8600    39.4430    18.6400 cx         1 70A      -0.106900
     45 C46          8.6690    39.1820    19.8640 cx         1 70A      -0.106900
     46 H62         10.0140    32.0340    27.3070 ha         1 70A       0.106000
     47 H61          7.5450    36.2340    28.2110 ha         1 70A       0.116000
     48 H63          9.6780    33.6440    25.5230 ha         1 70A       0.114000
     49 H64          7.2340    35.5560    30.5870 ha         1 70A       0.119000
     50 H65          7.6250    33.8650    32.3430 h4         1 70A       0.012100
     51 H59          1.9450    34.5670    27.9600 hc         1 70A       0.041700
     52 H57          1.4410    36.2550    28.0890 hc         1 70A       0.041700
     53 H58          0.3260    35.0540    27.4390 hc         1 70A       0.041700
     54 H47          1.7130    34.6910    25.4770 hc         1 70A       0.064700
     55 H48          1.2140    37.6620    25.9230 h1         1 70A       0.069200
     56 H49          0.0220    36.4540    25.3890 h1         1 70A       0.069200
     57 H50          3.3200    37.2640    27.6530 ha         1 70A       0.116000
     58 H51          5.6780    37.9120    27.5180 ha         1 70A       0.111000
     59 H52          6.1790    35.3070    24.1680 ha         1 70A       0.122000
     60 H55          3.3200    33.4420    24.4970 hc         1 70A       0.044700
     61 H54          2.8830    34.7450    23.4030 hc         1 70A       0.044700
     62 H53          4.4990    34.0390    23.3270 hc         1 70A       0.044700
     63 H56          7.8110    37.7310    26.5170 h1         1 70A       0.077700
     64 H60          8.7080    35.6120    24.7680 hn         1 70A       0.504000
     65 H67          8.2710    39.4080    22.4080 h1         1 70A       0.071700
     66 H66          7.3120    40.7420    23.0210 h1         1 70A       0.071700
     67 H68          5.1170    39.1150    18.8230 ha         1 70A       0.115000
     68 H69          3.1430    38.0950    19.8870 ha         1 70A       0.118000
     69 H70          5.0310    38.4690    23.6980 ha         1 70A       0.141000
     70 H71          2.3730    36.8940    21.9120 hn         1 70A       0.167000
     71 H74          7.2290    39.5760    26.2870 h1         1 70A       0.050033
     72 H72          7.0980    40.9190    25.1600 h1         1 70A       0.050033
     73 H73          5.7250    39.8230    25.3870 h1         1 70A       0.050033
     74 H76          9.6540    30.4270    30.5070 hn         1 70A       0.467000
     75 H75          9.8330    30.6820    28.8460 hn         1 70A       0.467000
     76 H77          9.4290    41.9950    19.3320 hn         1 70A       0.384000
     77 H78          8.2340    40.1500    17.9120 hc         1 70A       0.084950
     78 H79          7.2770    38.6310    18.2300 hc         1 70A       0.084950
     79 H81          8.6240    38.1940    20.3010 hc         1 70A       0.084950
     80 H80          9.6150    39.6930    19.9890 hc         1 70A       0.084950
     81 N38          9.7960    31.0950    29.7640 nv         1 70A      -1.050900
@<TRIPOS>BOND
     1     1    21 1   
     2     1    25 2   
     3     1    26 1   
     4     2     3 ar  
     5     2     6 ar  
     6     2    46 1   
     7     3     4 ar  
     8     3     9 ar  
     9     4     5 ar  
    10     4     7 ar  
    11     5    23 ar  
    12     5    47 1   
    13     6    23 ar  
    14     6    48 1   
    15     7     8 ar  
    16     7    49 1   
    17     8    24 ar  
    18     8    50 1   
    19     9    24 ar  
    20     9    81 1   
    21    10    12 1   
    22    10    51 1   
    23    10    52 1   
    24    10    53 1   
    25    11    27 1   
    26    11    28 ar  
    27    11    32 ar  
    28    12    13 1   
    29    12    14 1   
    30    12    54 1   
    31    13    34 1   
    32    13    55 1   
    33    13    56 1   
    34    14    15 ar  
    35    14    19 ar  
    36    15    16 ar  
    37    15    57 1   
    38    16    17 ar  
    39    16    58 1   
    40    17    18 ar  
    41    17    21 1   
    42    18    19 ar  
    43    18    59 1   
    44    19    20 1   
    45    20    60 1   
    46    20    61 1   
    47    20    62 1   
    48    21    22 1   
    49    21    63 1   
    50    22    23 1   
    51    22    64 1   
    52    26    27 1   
    53    26    37 1   
    54    27    65 1   
    55    27    66 1   
    56    28    29 ar  
    57    28    38 1   
    58    29    30 ar  
    59    29    67 1   
    60    30    31 ar  
    61    30    68 1   
    62    31    32 ar  
    63    31    33 1   
    64    32    69 1   
    65    33    35 1   
    66    33    70 1   
    67    34    35 1   
    68    35    36 2   
    69    37    71 1   
    70    37    72 1   
    71    37    73 1   
    72    38    39 1   
    73    38    44 1   
    74    38    45 1   
    75    39    40 1   
    76    39    43 2   
    77    40    41 1   
    78    40    76 1   
    79    41    42 2   
    80    42    43 1   
    81    44    45 1   
    82    44    77 1   
    83    44    78 1   
    84    45    79 1   
    85    45    80 1   
    86    74    81 1   
    87    75    81 1   
@<TRIPOS>SUBSTRUCTURE
     1 70A         1 TEMP              0 ****  ****    0 ROOT
