@<TRIPOS>MOLECULE
70B
   79    82     1     0     0
SMALL
abcg2


@<TRIPOS>ATOM
      1 NA          -5.0990     0.0750    -0.5950 ns         1 70B      -0.493400
      2 OA          -5.9700    -1.0690     1.1550 o          1 70B      -0.590100
      3 C1A         -6.0670    -0.2070     0.2930 c          1 70B       0.620700
      4 C1B        -12.0890     0.6410     0.5760 c3         1 70B       0.148900
      5 C1C         -1.3780    -0.1580    -0.0620 c6         1 70B       0.263300
      6 C1D          2.1850    -1.7020     2.2790 c6         1 70B       0.134800
      7 C1E          1.9650    -2.2970     3.6520 c3         1 70B       0.170600
      8 C1G          9.6150     1.9100    -0.3980 ca         1 70B      -0.182500
      9 C1H         11.7890     0.5680    -1.5690 c3         1 70B       0.148900
     10 N1E          5.0030     0.1370     0.5800 ns         1 70B      -0.493400
     11 O1D          1.2110    -0.6950     2.0700 os         1 70B      -0.413000
     12 O1E          2.6790     0.9700    -0.8250 oh         1 70B      -0.697500
     13 O1F          0.7110    -2.9360     3.6770 oh         1 70B      -0.705000
     14 O1G          5.6200    -0.9600    -1.3000 o          1 70B      -0.590100
     15 S1C         -0.1170     0.9820     0.5570 ss         1 70B      -0.374000
     16 C2A         -7.3250     0.5870     0.1300 ca         1 70B      -0.113600
     17 C2C         -2.7620     0.4950     0.0230 c6         1 70B       0.146300
     18 C2D          1.2540    -0.1820     0.7710 c6         1 70B       0.263300
     19 C2F          9.4910     0.6530    -0.9860 ca         1 70B       0.132600
     20 O2D          3.8840    -0.1560     3.0950 oh         1 70B      -0.714500
     21 C3A         -7.3190     1.8990    -0.3460 ca         1 70B      -0.127500
     22 C3C         -3.7780    -0.4940    -0.5620 c6         1 70B       0.112700
     23 C3D          2.5830     0.5330     0.5000 c6         1 70B       0.146300
     24 C3F          8.2510     0.0150    -0.9890 ca         1 70B      -0.096000
     25 C4A         -8.5160     2.5820    -0.4640 ca         1 70B      -0.082000
     26 C4C         -3.3610    -0.9490    -1.9610 c6         1 70B       0.126800
     27 C4D          3.7100    -0.4750     0.7360 c6         1 70B       0.112700
     28 C4F          7.1500     0.6090    -0.3890 ca         1 70B      -0.113600
     29 O4C         -3.4900     0.1560    -2.8290 oh         1 70B      -0.714500
     30 O4K         -3.1280     0.7600     1.3470 oh         1 70B      -0.697500
     31 C5A         -9.7230     1.9820    -0.1270 ca         1 70B      -0.182500
     32 C5C         -1.9290    -1.4780    -1.9060 c6         1 70B       0.134800
     33 C5D          3.5910    -1.1280     2.1140 c6         1 70B       0.126800
     34 C5F          7.2720     1.8710     0.1940 ca         1 70B      -0.127500
     35 O5C         -1.0600    -0.4900    -1.3810 os         1 70B      -0.413000
     36 C6A         -9.7280     0.6740     0.3550 ca         1 70B       0.132600
     37 C6C         -1.4090    -1.8960    -3.2630 c3         1 70B       0.170600
     38 C6F          8.5010     2.5070     0.1790 ca         1 70B      -0.082000
     39 C7A         -8.5210    -0.0120     0.4930 ca         1 70B      -0.096000
     40 O6C         -0.1680    -2.5350    -3.0930 oh         1 70B      -0.705000
     41 HA          -5.2810     0.7510    -1.3210 hn         1 70B       0.325000
     42 H3C         -3.8030    -1.3760     0.0820 h1         1 70B       0.100700
     43 H1B1       -12.1600     1.5320     1.2040 h1         1 70B       0.041200
     44 H1B2       -12.2960     0.9230    -0.4600 h1         1 70B       0.041200
     45 H1B3       -12.8390    -0.0770     0.9000 h1         1 70B       0.041200
     46 H1C         -1.3670    -1.0490     0.5840 h2         1 70B       0.081700
     47 H2C         -2.7570     1.4070    -0.5900 h1         1 70B       0.061700
     48 H1D          2.0660    -2.5010     1.5280 h1         1 70B       0.059200
     49 H1E1         2.7840    -3.0020     3.8430 h1         1 70B       0.027200
     50 H1E2         2.0320    -1.5070     4.4090 h1         1 70B       0.027200
     51 H5D          4.3050    -1.9590     2.1540 h1         1 70B       0.050700
     52 H1F          0.6310    -3.3960     4.5170 ho         1 70B       0.507000
     53 H1E          5.3040     0.7400     1.3290 hn         1 70B       0.325000
     54 H6F          8.6030     3.4900     0.6210 ha         1 70B       0.113500
     55 H1H1        11.8120     1.5080    -2.1260 h1         1 70B       0.041200
     56 H1H2        12.1550     0.7490    -0.5550 h1         1 70B       0.041200
     57 H1H3        12.4500    -0.1440    -2.0570 h1         1 70B       0.041200
     58 H4D          3.6160    -1.2610    -0.0170 h1         1 70B       0.100700
     59 H2D          1.1250    -0.9780     0.0210 h2         1 70B       0.081700
     60 HB           1.9190     1.5330    -1.0160 ho         1 70B       0.519000
     61 H3D          2.6800     1.3650     1.2140 h1         1 70B       0.061700
     62 H3A         -6.3940     2.4030    -0.5950 ha         1 70B       0.117500
     63 H7A         -8.5290    -1.0250     0.8750 ha         1 70B       0.148000
     64 H4K         -2.7730     1.6150     1.6070 ho         1 70B       0.519000
     65 H3F          8.1590    -0.9590    -1.4540 ha         1 70B       0.148000
     66 HC           4.4150    -0.5590     3.7870 ho         1 70B       0.506000
     67 H4A         -8.5200     3.6030    -0.8220 ha         1 70B       0.113500
     68 H4C         -4.0210    -1.7700    -2.2630 h1         1 70B       0.050700
     69 H5A        -10.6390     2.5440    -0.2430 ha         1 70B       0.118000
     70 HD          -3.7080    -0.1560    -3.7120 ho         1 70B       0.506000
     71 H5C         -1.9320    -2.3640    -1.2500 h1         1 70B       0.059200
     72 H5F          6.4220     2.3750     0.6340 ha         1 70B       0.117500
     73 H6C1        -2.1540    -2.5670    -3.7120 h1         1 70B       0.027200
     74 H6C2        -1.3290    -1.0180    -3.9140 h1         1 70B       0.027200
     75 H6A          0.2000    -2.7090    -3.9640 ho         1 70B       0.507000
     76 C1F          5.8540    -0.1410    -0.4230 c          1 70B       0.620700
     77 O1A        -10.8360    -0.0010     0.7080 os         1 70B      -0.338100
     78 H1G         10.5590     2.4370    -0.3820 ha         1 70B       0.118000
     79 O1H         10.5010    -0.0160    -1.5690 os         1 70B      -0.338100
@<TRIPOS>BOND
     1     1     3 1   
     2     1    22 1   
     3     1    41 1   
     4     2     3 2   
     5     3    16 1   
     6     4    43 1   
     7     4    44 1   
     8     4    45 1   
     9     4    77 1   
    10     5    15 1   
    11     5    17 1   
    12     5    35 1   
    13     5    46 1   
    14     6     7 1   
    15     6    11 1   
    16     6    33 1   
    17     6    48 1   
    18     7    13 1   
    19     7    49 1   
    20     7    50 1   
    21     8    19 ar  
    22     8    38 ar  
    23     8    78 1   
    24     9    55 1   
    25     9    56 1   
    26     9    57 1   
    27     9    79 1   
    28    10    27 1   
    29    10    53 1   
    30    10    76 1   
    31    11    18 1   
    32    12    23 1   
    33    12    60 1   
    34    13    52 1   
    35    14    76 2   
    36    15    18 1   
    37    16    21 ar  
    38    16    39 ar  
    39    17    22 1   
    40    17    30 1   
    41    17    47 1   
    42    18    23 1   
    43    18    59 1   
    44    19    24 ar  
    45    19    79 1   
    46    20    33 1   
    47    20    66 1   
    48    21    25 ar  
    49    21    62 1   
    50    22    26 1   
    51    22    42 1   
    52    23    27 1   
    53    23    61 1   
    54    24    28 ar  
    55    24    65 1   
    56    25    31 ar  
    57    25    67 1   
    58    26    29 1   
    59    26    32 1   
    60    26    68 1   
    61    27    33 1   
    62    27    58 1   
    63    28    34 ar  
    64    28    76 1   
    65    29    70 1   
    66    30    64 1   
    67    31    36 ar  
    68    31    69 1   
    69    32    35 1   
    70    32    37 1   
    71    32    71 1   
    72    33    51 1   
    73    34    38 ar  
    74    34    72 1   
    75    36    39 ar  
    76    36    77 1   
    77    37    40 1   
    78    37    73 1   
    79    37    74 1   
    80    38    54 1   
    81    39    63 1   
    82    40    75 1   
@<TRIPOS>SUBSTRUCTURE
     1 70B         1 TEMP              0 ****  ****    0 ROOT
