@<TRIPOS>MOLECULE
70B
   79    82     1     0     0
SMALL
No Charge or Current Charge


@<TRIPOS>ATOM
      1 NA          -5.2580     0.3100    -0.2390 ns         1 70B      -0.493400
      2 OA          -6.4700    -1.5610     0.1510 o          1 70B      -0.590100
      3 C1A         -6.4440    -0.3480    -0.0020 c          1 70B       0.620700
      4 C1B        -12.5810     0.6290     0.6900 c3         1 70B       0.148900
      5 C1C         -1.3930     0.0780    -0.1160 c6         1 70B       0.263300
      6 C1D          2.2050    -1.7300     1.4760 c6         1 70B       0.134800
      7 C1E          1.8390    -2.5650     2.7460 c3         1 70B       0.170600
      8 C1G         10.0840     2.0170    -0.1990 ca         1 70B      -0.182500
      9 C1H         12.5760     0.6100    -0.7100 c3         1 70B       0.148900
     10 N1E          5.2530     0.3060     0.2180 ns         1 70B      -0.493400
     11 O1D          1.2330    -0.6650     1.3210 os         1 70B      -0.413000
     12 O1E          2.9850     1.5150    -1.1600 oh         1 70B      -0.697500
     13 O1F          0.5210    -3.1440     2.6820 oh         1 70B      -0.705000
     14 O1G          6.4630    -1.5690    -0.1570 o          1 70B      -0.590100
     15 S1C         -0.0020     1.2890    -0.0140 ss         1 70B      -0.374000
     16 C2A         -7.6990     0.5030     0.0520 ca         1 70B      -0.113600
     17 C2C         -2.7960     0.7650    -0.0840 c6         1 70B       0.146300
     18 C2D          1.3870     0.0770     0.0960 c6         1 70B       0.263300
     19 C2F         10.1290     0.6200    -0.3820 ca         1 70B       0.132600
     20 O2D          3.8680    -0.3230     2.7000 oh         1 70B      -0.714500
     21 C3A         -7.6730     1.9070    -0.1410 ca         1 70B      -0.127500
     22 C3C         -3.9160    -0.3150    -0.2410 c6         1 70B       0.112700
     23 C3D          2.7910     0.7620     0.0600 c6         1 70B       0.146300
     24 C3F          8.9410    -0.1270    -0.3180 ca         1 70B      -0.096000
     25 C4A         -8.8590     2.6590    -0.0830 ca         1 70B      -0.082000
     26 C4C         -3.6620    -1.1520    -1.5380 c6         1 70B       0.126800
     27 C4D          3.9100    -0.3170     0.2250 c6         1 70B       0.112700
     28 C4F          7.6940     0.4950    -0.0730 ca         1 70B      -0.113600
     29 O4C         -3.8740    -0.3390    -2.7160 oh         1 70B      -0.714500
     30 O4K         -2.9890     1.5270     1.1300 oh         1 70B      -0.697500
     31 C5A        -10.0880     2.0290     0.1670 ca         1 70B      -0.182500
     32 C5C         -2.2130    -1.7390    -1.4820 c6         1 70B       0.134800
     33 C5D          3.6550    -1.1440     1.5290 c6         1 70B       0.126800
     34 C5F          7.6690     1.9000     0.1090 ca         1 70B      -0.127500
     35 O5C         -1.2400    -0.6740    -1.3350 os         1 70B      -0.413000
     36 C6A        -10.1340     0.6330     0.3610 ca         1 70B       0.132600
     37 C6C         -1.8480    -2.5840    -2.7460 c3         1 70B       0.170600
     38 C6F          8.8560     2.6500     0.0450 ca         1 70B      -0.082000
     39 C7A         -8.9460    -0.1150     0.3030 ca         1 70B      -0.096000
     40 O6C         -0.5300    -3.1630    -2.6770 oh         1 70B      -0.705000
     41 HA          -5.3050     1.3190    -0.2850 hn         1 70B       0.325000
     42 H3C         -3.8580    -0.9930     0.6240 h1         1 70B       0.100700
     43 H1B1       -12.5790     1.3720     1.4980 h1         1 70B       0.041200
     44 H1B2       -12.8140     1.1360    -0.2550 h1         1 70B       0.041200
     45 H1B3       -13.3810    -0.0930     0.8950 h1         1 70B       0.041200
     46 H1C         -1.2960    -0.5940     0.7510 h2         1 70B       0.081700
     47 H2C         -2.8480     1.4420    -0.9500 h1         1 70B       0.061700
     48 H1D          2.1270    -2.4020     0.6090 h1         1 70B       0.059200
     49 H1E1         2.5900    -3.3580     2.8610 h1         1 70B       0.027200
     50 H1E2         1.9170    -1.9130     3.6270 h1         1 70B       0.027200
     51 H5D          4.3580    -1.9900     1.5420 h1         1 70B       0.050700
     52 H1F          0.3580    -3.5820     3.5490 ho         1 70B       0.507000
     53 H1E          5.3010     1.3160     0.2560 hn         1 70B       0.325000
     54 H6F          8.8220     3.7290     0.1870 ha         1 70B       0.113500
     55 H1H1        12.5760     1.3470    -1.5230 h1         1 70B       0.041200
     56 H1H2        12.8100     1.1240     0.2320 h1         1 70B       0.041200
     57 H1H3        13.3760    -0.1140    -0.9080 h1         1 70B       0.041200
     58 H4D          3.8520    -1.0020    -0.6350 h1         1 70B       0.100700
     59 H2D          1.2900    -0.6010    -0.7650 h2         1 70B       0.081700
     60 HB           2.2140     2.1240    -1.2420 ho         1 70B       0.519000
     61 H3D          2.8440     1.4460     0.9200 h1         1 70B       0.061700
     62 H3A         -6.7430     2.4340    -0.3380 ha         1 70B       0.117500
     63 H7A         -9.0020    -1.1910     0.4550 ha         1 70B       0.148000
     64 H4K         -2.2170     2.1360     1.2070 ho         1 70B       0.519000
     65 H3F          8.9950    -1.2030    -0.4620 ha         1 70B       0.148000
     66 HC           4.7960     0.0030     2.6530 ho         1 70B       0.506000
     67 H4A         -8.8230     3.7360    -0.2340 ha         1 70B       0.113500
     68 H4C         -4.3660    -1.9970    -1.5450 h1         1 70B       0.050700
     69 H5A        -10.9870     2.6370     0.2060 ha         1 70B       0.118000
     70 HD          -4.8020    -0.0130    -2.6710 ho         1 70B       0.506000
     71 H5C         -2.1350    -2.4050    -0.6090 h1         1 70B       0.059200
     72 H5F          6.7400     2.4300     0.3010 ha         1 70B       0.117500
     73 H6C1        -2.6000    -3.3770    -2.8540 h1         1 70B       0.027200
     74 H6C2        -1.9250    -1.9380    -3.6310 h1         1 70B       0.027200
     75 H6A         -0.3680    -3.6090    -3.5410 ho         1 70B       0.507000
     76 C1F          6.4380    -0.3540    -0.0130 c          1 70B       0.620700
     77 O1A        -11.3110    -0.0440     0.6100 os         1 70B      -0.338100
     78 H1G         10.9840     2.6240    -0.2420 ha         1 70B       0.118000
     79 O1H         11.3060    -0.0600    -0.6250 os         1 70B      -0.338100
@<TRIPOS>BOND
     1     1     3 1   
     2     1    22 1   
     3     1    41 1   
     4     2     3 2   
     5     3    16 1   
     6     4    43 1   
     7     4    44 1   
     8     4    45 1   
     9     4    77 1   
    10     5    15 1   
    11     5    17 1   
    12     5    35 1   
    13     5    46 1   
    14     6     7 1   
    15     6    11 1   
    16     6    33 1   
    17     6    48 1   
    18     7    13 1   
    19     7    49 1   
    20     7    50 1   
    21     8    19 ar  
    22     8    38 ar  
    23     8    78 1   
    24     9    55 1   
    25     9    56 1   
    26     9    57 1   
    27     9    79 1   
    28    10    27 1   
    29    10    53 1   
    30    10    76 1   
    31    11    18 1   
    32    12    23 1   
    33    12    60 1   
    34    13    52 1   
    35    14    76 2   
    36    15    18 1   
    37    16    21 ar  
    38    16    39 ar  
    39    17    22 1   
    40    17    30 1   
    41    17    47 1   
    42    18    23 1   
    43    18    59 1   
    44    19    24 ar  
    45    19    79 1   
    46    20    33 1   
    47    20    66 1   
    48    21    25 ar  
    49    21    62 1   
    50    22    26 1   
    51    22    42 1   
    52    23    27 1   
    53    23    61 1   
    54    24    28 ar  
    55    24    65 1   
    56    25    31 ar  
    57    25    67 1   
    58    26    29 1   
    59    26    32 1   
    60    26    68 1   
    61    27    33 1   
    62    27    58 1   
    63    28    34 ar  
    64    28    76 1   
    65    29    70 1   
    66    30    64 1   
    67    31    36 ar  
    68    31    69 1   
    69    32    35 1   
    70    32    37 1   
    71    32    71 1   
    72    33    51 1   
    73    34    38 ar  
    74    34    72 1   
    75    36    39 ar  
    76    36    77 1   
    77    37    40 1   
    78    37    73 1   
    79    37    74 1   
    80    38    54 1   
    81    39    63 1   
    82    40    75 1   
@<TRIPOS>SUBSTRUCTURE
     1 70B         1 TEMP              0 ****  ****    0 ROOT
