@<TRIPOS>MOLECULE
70C
   87    92     1     0     0
SMALL
No Charge or Current Charge


@<TRIPOS>ATOM
      1 C13          8.3590    36.7260    24.3390 c          1 70C       0.593100
      2 C18          9.6440    31.4850    27.3940 ca         1 70C      -0.044000
      3 C17          9.2720    31.7700    28.7260 ca         1 70C      -0.162000
      4 C16          8.8940    33.0840    29.0750 ca         1 70C       0.041000
      5 C15          8.8850    34.0990    28.1000 ca         1 70C      -0.209000
      6 C19          9.6270    32.5060    26.4280 ca         1 70C      -0.174000
      7 C20          8.5330    33.3360    30.4150 ca         1 70C       0.057000
      8 C21          8.5640    32.2710    31.3400 ca         1 70C       0.339900
      9 C23          9.2640    30.7910    29.7440 ca         1 70C       0.605900
     10 C11          2.3850    33.3940    27.6500 c3         1 70C      -0.084100
     11 C27          6.4270    38.1700    22.1170 ca         1 70C      -0.054300
     12 C1           2.6820    33.9660    26.2420 c3         1 70C      -0.043400
     13 C2           1.6680    35.0860    25.8650 c3         1 70C       0.183600
     14 C3           4.1540    34.4120    26.1000 ca         1 70C      -0.075300
     15 C4           4.7060    35.2860    27.0640 ca         1 70C      -0.088000
     16 C5           6.0220    35.7590    26.9460 ca         1 70C      -0.092000
     17 C6           6.8190    35.3760    25.8550 ca         1 70C      -0.111300
     18 C7           6.2830    34.4980    24.8950 ca         1 70C      -0.085000
     19 C8           4.9640    34.0110    25.0030 ca         1 70C      -0.067300
     20 C9           4.4540    33.0730    23.9100 c3         1 70C      -0.046800
     21 C10          8.2430    35.9210    25.6960 c3         1 70C       0.196800
     22 N12          9.2250    34.7990    25.7960 nu         1 70C      -0.950200
     23 C14          9.2420    33.8090    26.7750 ca         1 70C       0.372000
     24 N22          8.9250    31.0060    31.0100 nb         1 70C      -0.762000
     25 O24          8.8670    36.2130    23.3430 o          1 70C      -0.619100
     26 N25          7.8090    38.0310    24.2650 n          1 70C      -0.386800
     27 C26          7.6200    38.6880    22.9450 c3         1 70C       0.131300
     28 C28          6.3660    38.2820    20.6650 ca         1 70C       0.013700
     29 C29          5.1960    37.7400    20.0610 ca         1 70C      -0.108000
     30 C30          4.1640    37.1460    20.8090 ca         1 70C      -0.152000
     31 C31          4.2200    37.0740    22.2060 ca         1 70C      -0.054000
     32 C32          5.3470    37.5830    22.8660 ca         1 70C      -0.124000
     33 N33          3.1630    36.4340    22.9050 ns         1 70C      -0.141000
     34 O34          1.8920    35.4890    24.4950 os         1 70C      -0.483100
     35 C35          2.8100    36.4750    24.2420 c          1 70C       0.641100
     36 O36          3.2400    37.2620    25.0750 o          1 70C      -0.521000
     37 C37          7.4260    38.7910    25.4780 c3         1 70C       0.088300
     38 C39          7.4970    38.9330    19.7720 c6         1 70C      -0.141700
     39 C41          7.8510    40.3600    20.3320 c          1 70C       0.713000
     40 C42          7.0440    39.1640    18.2780 c6         1 70C      -0.042400
     41 C43          8.1590    39.7580    17.3790 c6         1 70C      -0.069400
     42 C44          9.3640    38.7950    17.3130 c6         1 70C      -0.066400
     43 C45          9.8740    38.4530    18.7290 c6         1 70C      -0.069400
     44 C46          8.7280    37.9500    19.6550 c6         1 70C      -0.042400
     45 O47          8.9040    40.5090    20.9350 o          1 70C      -0.722500
     46 O48          6.9110    41.1190    20.5250 o          1 70C      -0.722500
     47 H64          9.9480    30.4840    27.0980 ha         1 70C       0.105000
     48 H63          8.6010    35.1110    28.3700 ha         1 70C       0.133000
     49 H65          9.9090    32.2790    25.4040 ha         1 70C       0.119000
     50 H66          8.2880    32.4380    32.3810 h4         1 70C       0.024100
     51 H60          3.1160    32.6190    27.9110 hc         1 70C       0.036033
     52 H59          2.4190    34.1740    28.4190 hc         1 70C       0.036033
     53 H61          1.3870    32.9400    27.6770 hc         1 70C       0.036033
     54 H49          2.4770    33.1350    25.5590 hc         1 70C       0.058700
     55 H50          1.7460    35.9310    26.5620 h1         1 70C       0.061700
     56 H51          0.6540    34.6770    25.9640 h1         1 70C       0.061700
     57 H52          4.1060    35.6260    27.9040 ha         1 70C       0.110000
     58 H53          6.4130    36.4370    27.7010 ha         1 70C       0.112000
     59 H54          6.8980    34.1960    24.0510 ha         1 70C       0.124000
     60 H55          4.2260    32.0820    24.3180 hc         1 70C       0.041700
     61 H57          3.5460    33.4650    23.4380 hc         1 70C       0.041700
     62 H56          5.1930    32.9330    23.1130 hc         1 70C       0.041700
     63 H58          8.4440    36.6280    26.5110 h1         1 70C       0.075700
     64 H62          9.6280    34.5140    24.9010 hn         1 70C       0.515000
     65 H68          8.5530    38.5620    22.3930 h1         1 70C       0.104700
     66 H67          7.4920    39.7690    23.0900 h1         1 70C       0.104700
     67 H69          5.0480    37.7590    18.9890 ha         1 70C       0.110000
     68 H70          3.3000    36.7410    20.2860 ha         1 70C       0.095000
     69 H71          5.4060    37.5080    23.9450 ha         1 70C       0.120000
     70 H72          2.6380    35.7680    22.3560 hn         1 70C       0.154000
     71 H75          8.2800    38.8520    26.1650 h1         1 70C       0.044700
     72 H74          7.1180    39.8110    25.2160 h1         1 70C       0.044700
     73 H73          6.5870    38.2950    25.9810 h1         1 70C       0.044700
     74 H76          9.3110    28.9080    30.3600 hn         1 70C       0.462000
     75 H77          9.4780    29.1030    28.6570 hn         1 70C       0.462000
     76 H78          6.1630    39.8190    18.2420 hc         1 70C       0.025700
     77 H79          6.7450    38.2130    17.8160 hc         1 70C       0.025700
     78 H80          8.4780    40.7410    17.7500 hc         1 70C       0.040450
     79 H81          7.7670    39.9230    16.3660 hc         1 70C       0.040450
     80 H83          9.0700    37.8720    16.7940 hc         1 70C       0.012700
     81 H82         10.1720    39.2430    16.7200 hc         1 70C       0.012700
     82 H84         10.6520    37.6810    18.6590 hc         1 70C       0.040450
     83 H85         10.3650    39.3330    19.1640 hc         1 70C       0.040450
     84 H86          8.3700    36.9850    19.2700 hc         1 70C       0.025700
     85 H87          9.1550    37.7160    20.6350 hc         1 70C       0.025700
     86 N38          9.5770    29.5000    29.5830 nv         1 70C      -1.046900
     87 F40          8.1580    34.5750    30.8180 f          1 70C      -0.186000
@<TRIPOS>BOND
     1     1    21 1   
     2     1    25 2   
     3     1    26 1   
     4     2     3 ar  
     5     2     6 ar  
     6     2    47 1   
     7     3     4 ar  
     8     3     9 ar  
     9     4     5 ar  
    10     4     7 ar  
    11     5    23 ar  
    12     5    48 1   
    13     6    23 ar  
    14     6    49 1   
    15     7     8 ar  
    16     7    87 1   
    17     8    24 ar  
    18     8    50 1   
    19     9    24 ar  
    20     9    86 1   
    21    10    12 1   
    22    10    51 1   
    23    10    52 1   
    24    10    53 1   
    25    11    27 1   
    26    11    28 ar  
    27    11    32 ar  
    28    12    13 1   
    29    12    14 1   
    30    12    54 1   
    31    13    34 1   
    32    13    55 1   
    33    13    56 1   
    34    14    15 ar  
    35    14    19 ar  
    36    15    16 ar  
    37    15    57 1   
    38    16    17 ar  
    39    16    58 1   
    40    17    18 ar  
    41    17    21 1   
    42    18    19 ar  
    43    18    59 1   
    44    19    20 1   
    45    20    60 1   
    46    20    61 1   
    47    20    62 1   
    48    21    22 1   
    49    21    63 1   
    50    22    23 1   
    51    22    64 1   
    52    26    27 1   
    53    26    37 1   
    54    27    65 1   
    55    27    66 1   
    56    28    29 ar  
    57    28    38 1   
    58    29    30 ar  
    59    29    67 1   
    60    30    31 ar  
    61    30    68 1   
    62    31    32 ar  
    63    31    33 1   
    64    32    69 1   
    65    33    35 1   
    66    33    70 1   
    67    34    35 1   
    68    35    36 2   
    69    37    71 1   
    70    37    72 1   
    71    37    73 1   
    72    38    39 1   
    73    38    40 1   
    74    38    44 1   
    75    39    45 1   
    76    39    46 1   
    77    40    41 1   
    78    40    76 1   
    79    40    77 1   
    80    41    42 1   
    81    41    78 1   
    82    41    79 1   
    83    42    43 1   
    84    42    80 1   
    85    42    81 1   
    86    43    44 1   
    87    43    82 1   
    88    43    83 1   
    89    44    84 1   
    90    44    85 1   
    91    74    86 1   
    92    75    86 1   
@<TRIPOS>SUBSTRUCTURE
     1 70C         1 TEMP              0 ****  ****    0 ROOT
