@<TRIPOS>MOLECULE
70C
   87    92     1     0     0
SMALL
abcg2


@<TRIPOS>ATOM
      1 C13          8.1360    36.5790    24.3550 c          1 70C       0.593100
      2 C18         10.1870    31.7050    27.2750 ca         1 70C      -0.044000
      3 C17          9.6940    31.8520    28.5930 ca         1 70C      -0.162000
      4 C16          8.9430    33.0240    28.8860 ca         1 70C       0.041000
      5 C15          8.6920    33.9880    27.8960 ca         1 70C      -0.209000
      6 C19          9.9380    32.6440    26.3150 ca         1 70C      -0.174000
      7 C20          8.4790    33.1460    30.2160 ca         1 70C       0.057000
      8 C21          8.7410    32.1960    31.1510 ca         1 70C       0.339900
      9 C23          9.9030    30.8960    29.6410 ca         1 70C       0.605900
     10 C11          1.9880    33.9270    27.7290 c3         1 70C      -0.084100
     11 C27          6.4450    38.0150    22.1140 ca         1 70C      -0.054300
     12 C1           2.4480    34.1950    26.2920 c3         1 70C      -0.043400
     13 C2           1.5790    35.3060    25.6890 c3         1 70C       0.183600
     14 C3           3.9220    34.5390    26.1720 ca         1 70C      -0.075300
     15 C4           4.4980    35.4510    27.0540 ca         1 70C      -0.088000
     16 C5           5.8160    35.8650    26.9200 ca         1 70C      -0.092000
     17 C6           6.5970    35.3650    25.8860 ca         1 70C      -0.111300
     18 C7           6.0370    34.4360    25.0150 ca         1 70C      -0.085000
     19 C8           4.7150    34.0100    25.1370 ca         1 70C      -0.067300
     20 C9           4.1820    33.0020    24.1490 c3         1 70C      -0.046800
     21 C10          8.0430    35.8160    25.6900 c3         1 70C       0.196800
     22 N12          8.9840    34.7240    25.6080 nu         1 70C      -0.950200
     23 C14          9.1780    33.8130    26.6050 ca         1 70C       0.372000
     24 N22          9.4440    31.0700    30.8700 nb         1 70C      -0.762000
     25 O24          8.5690    35.9940    23.3590 o          1 70C      -0.619100
     26 N25          7.6760    37.8430    24.2960 n          1 70C      -0.386800
     27 C26          7.6110    38.4740    22.9760 c3         1 70C       0.131300
     28 C28          6.4060    38.2400    20.7190 ca         1 70C       0.013700
     29 C29          5.2610    37.8060    20.0450 ca         1 70C      -0.108000
     30 C30          4.1970    37.1810    20.6840 ca         1 70C      -0.152000
     31 C31          4.2540    36.9640    22.0530 ca         1 70C      -0.054000
     32 C32          5.3810    37.3840    22.7510 ca         1 70C      -0.124000
     33 N33          3.2040    36.2690    22.6910 ns         1 70C      -0.141000
     34 O34          1.8830    35.4950    24.2920 os         1 70C      -0.483100
     35 C35          2.7910    36.4490    23.9720 c          1 70C       0.641100
     36 O36          3.1510    37.3360    24.7200 o          1 70C      -0.521000
     37 C37          7.1600    38.6040    25.4290 c3         1 70C       0.088300
     38 C39          7.5770    38.8650    19.9430 c6         1 70C      -0.141700
     39 C41          8.0300    40.1890    20.6620 c          1 70C       0.713000
     40 C42          7.1640    39.2840    18.5110 c6         1 70C      -0.042400
     41 C43          8.3450    39.7930    17.6840 c6         1 70C      -0.069400
     42 C44          9.3990    38.6970    17.5320 c6         1 70C      -0.066400
     43 C45          9.8630    38.1920    18.8980 c6         1 70C      -0.069400
     44 C46          8.6900    37.7940    19.8000 c6         1 70C      -0.042400
     45 O47          9.2320    40.3270    20.9880 o          1 70C      -0.722500
     46 O48          7.1210    41.0410    20.8400 o          1 70C      -0.722500
     47 H64         10.7820    30.8410    27.0080 ha         1 70C       0.105000
     48 H63          8.1170    34.8610    28.1560 ha         1 70C       0.133000
     49 H65         10.3220    32.5110    25.3110 ha         1 70C       0.119000
     50 H66          8.3780    32.3130    32.1660 h4         1 70C       0.024100
     51 H60          2.5960    33.1440    28.1840 hc         1 70C       0.036033
     52 H59          2.0590    34.8180    28.3540 hc         1 70C       0.036033
     53 H61          0.9470    33.5980    27.7350 hc         1 70C       0.036033
     54 H49          2.2550    33.2930    25.7120 hc         1 70C       0.058700
     55 H50          1.7190    36.2460    26.2200 h1         1 70C       0.061700
     56 H51          0.5280    35.0230    25.7210 h1         1 70C       0.061700
     57 H52          3.9010    35.8660    27.8560 ha         1 70C       0.110000
     58 H53          6.2340    36.5760    27.6220 ha         1 70C       0.112000
     59 H54          6.6430    34.0330    24.2130 ha         1 70C       0.124000
     60 H55          3.8380    32.0940    24.6500 hc         1 70C       0.041700
     61 H57          3.3360    33.3990    23.5870 hc         1 70C       0.041700
     62 H56          4.9610    32.7220    23.4400 hc         1 70C       0.041700
     63 H58          8.3200    36.4680    26.5190 h1         1 70C       0.075700
     64 H62          9.2310    34.4640    24.6630 hn         1 70C       0.515000
     65 H68          8.5530    38.3020    22.4690 h1         1 70C       0.104700
     66 H67          7.5340    39.5480    23.1400 h1         1 70C       0.104700
     67 H69          5.1780    37.9530    18.9800 ha         1 70C       0.110000
     68 H70          3.3310    36.8610    20.1170 ha         1 70C       0.095000
     69 H71          5.4280    37.1930    23.8090 ha         1 70C       0.120000
     70 H72          2.7380    35.5450    22.1650 hn         1 70C       0.154000
     71 H75          7.6160    38.2820    26.3590 h1         1 70C       0.044700
     72 H74          7.4090    39.6530    25.2780 h1         1 70C       0.044700
     73 H73          6.0760    38.5120    25.5180 h1         1 70C       0.044700
     74 H76         10.5560    29.0580    30.1330 hn         1 70C       0.462000
     75 H77         10.6610    29.3830    28.4830 hn         1 70C       0.462000
     76 H78          6.3740    40.0340    18.5650 hc         1 70C       0.025700
     77 H79          6.7560    38.4180    17.9850 hc         1 70C       0.025700
     78 H80          8.7920    40.6730    18.1580 hc         1 70C       0.040450
     79 H81          7.9860    40.1120    16.7020 hc         1 70C       0.040450
     80 H83          8.9620    37.8670    16.9630 hc         1 70C       0.012700
     81 H82         10.2530    39.0600    16.9530 hc         1 70C       0.012700
     82 H84         10.5230    37.3280    18.7740 hc         1 70C       0.040450
     83 H85         10.4370    38.9740    19.3950 hc         1 70C       0.040450
     84 H86          8.2120    36.9010    19.3800 hc         1 70C       0.025700
     85 H87          9.0700    37.5040    20.7790 hc         1 70C       0.025700
     86 N38         10.6510    29.7620    29.4160 nv         1 70C      -1.046900
     87 F40          7.7520    34.2490    30.5540 f          1 70C      -0.186000
@<TRIPOS>BOND
     1     1    21 1   
     2     1    25 2   
     3     1    26 1   
     4     2     3 ar  
     5     2     6 ar  
     6     2    47 1   
     7     3     4 ar  
     8     3     9 ar  
     9     4     5 ar  
    10     4     7 ar  
    11     5    23 ar  
    12     5    48 1   
    13     6    23 ar  
    14     6    49 1   
    15     7     8 ar  
    16     7    87 1   
    17     8    24 ar  
    18     8    50 1   
    19     9    24 ar  
    20     9    86 1   
    21    10    12 1   
    22    10    51 1   
    23    10    52 1   
    24    10    53 1   
    25    11    27 1   
    26    11    28 ar  
    27    11    32 ar  
    28    12    13 1   
    29    12    14 1   
    30    12    54 1   
    31    13    34 1   
    32    13    55 1   
    33    13    56 1   
    34    14    15 ar  
    35    14    19 ar  
    36    15    16 ar  
    37    15    57 1   
    38    16    17 ar  
    39    16    58 1   
    40    17    18 ar  
    41    17    21 1   
    42    18    19 ar  
    43    18    59 1   
    44    19    20 1   
    45    20    60 1   
    46    20    61 1   
    47    20    62 1   
    48    21    22 1   
    49    21    63 1   
    50    22    23 1   
    51    22    64 1   
    52    26    27 1   
    53    26    37 1   
    54    27    65 1   
    55    27    66 1   
    56    28    29 ar  
    57    28    38 1   
    58    29    30 ar  
    59    29    67 1   
    60    30    31 ar  
    61    30    68 1   
    62    31    32 ar  
    63    31    33 1   
    64    32    69 1   
    65    33    35 1   
    66    33    70 1   
    67    34    35 1   
    68    35    36 2   
    69    37    71 1   
    70    37    72 1   
    71    37    73 1   
    72    38    39 1   
    73    38    40 1   
    74    38    44 1   
    75    39    45 1   
    76    39    46 1   
    77    40    41 1   
    78    40    76 1   
    79    40    77 1   
    80    41    42 1   
    81    41    78 1   
    82    41    79 1   
    83    42    43 1   
    84    42    80 1   
    85    42    81 1   
    86    43    44 1   
    87    43    82 1   
    88    43    83 1   
    89    44    84 1   
    90    44    85 1   
    91    74    86 1   
    92    75    86 1   
@<TRIPOS>SUBSTRUCTURE
     1 70C         1 TEMP              0 ****  ****    0 ROOT
