@<TRIPOS>MOLECULE
70D
   81    86     1     0     0
SMALL
No Charge or Current Charge


@<TRIPOS>ATOM
      1 C13          7.9460    38.0100    24.0860 c          1 70D       0.594100
      2 C18          8.7390    33.0030    27.6510 ca         1 70D      -0.044000
      3 C17          8.3230    33.4280    28.9320 ca         1 70D      -0.162000
      4 C16          8.0180    34.7890    29.1470 ca         1 70D       0.041000
      5 C15          8.1240    35.7120    28.0890 ca         1 70D      -0.207000
      6 C19          8.8360    33.9330    26.6010 ca         1 70D      -0.174000
      7 C20          7.6120    35.1800    30.4390 ca         1 70D       0.057000
      8 C21          7.5270    34.2020    31.4520 ca         1 70D       0.339900
      9 C23          8.2010    32.5450    30.0280 ca         1 70D       0.606900
     10 C11          1.6350    35.1230    27.1810 c3         1 70D      -0.084100
     11 C27          6.0980    39.5730    21.7130 ca         1 70D      -0.081300
     12 C1           2.0280    35.6600    25.7840 c3         1 70D      -0.043400
     13 C2           1.0940    36.8270    25.3470 c3         1 70D       0.183600
     14 C3           3.5260    36.0280    25.7130 ca         1 70D      -0.073300
     15 C4           4.0680    36.9010    26.6830 ca         1 70D      -0.086000
     16 C5           5.4090    37.3090    26.6240 ca         1 70D      -0.090000
     17 C6           6.2450    36.8540    25.5910 ca         1 70D      -0.114300
     18 C7           5.7200    35.9700    24.6300 ca         1 70D      -0.090000
     19 C8           4.3740    35.5550    24.6740 ca         1 70D      -0.067300
     20 C9           3.8750    34.6170    23.5770 c3         1 70D      -0.046800
     21 C10          7.6990    37.3300    25.4920 c3         1 70D       0.197800
     22 N12          8.6190    36.1820    25.7570 nu         1 70D      -0.950200
     23 C14          8.5230    35.2830    26.8150 ca         1 70D       0.372000
     24 N22          7.8170    32.8920    31.2510 nb         1 70D      -0.761000
     25 O24          8.5020    37.3920    23.1780 o          1 70D      -0.632100
     26 N25          7.4600    39.3240    23.8610 n          1 70D      -0.381800
     27 C26          7.3950    39.8780    22.4840 c3         1 70D       0.130300
     28 C28          5.9660    39.8860    20.3320 ca         1 70D       0.023700
     29 C29          4.7540    39.5830    19.6730 ca         1 70D      -0.094000
     30 C30          3.6860    38.9810    20.3550 ca         1 70D      -0.132000
     31 C31          3.7970    38.6940    21.7200 ca         1 70D      -0.066000
     32 C32          5.0020    38.9820    22.3860 ca         1 70D      -0.107000
     33 N33          2.7080    38.0860    22.3960 ns         1 70D      -0.148000
     34 O34          1.3860    37.1880    23.9780 os         1 70D      -0.482100
     35 C35          2.3650    38.1170    23.7350 c          1 70D       0.638100
     36 O36          2.8480    38.8650    24.5750 o          1 70D      -0.521000
     37 C37          6.9900    40.1880    24.9690 c3         1 70D       0.083300
     38 C39          7.0830    40.5670    19.5250 cy         1 70D      -0.174700
     39 C41          7.2900    42.1420    19.8180 c          1 70D       0.724000
     40 C42          7.1040    40.6340    17.9370 cy         1 70D      -0.065400
     41 C43          8.6720    40.6740    17.9820 cy         1 70D      -0.095400
     42 C44          8.5880    40.0670    19.4270 cy         1 70D      -0.065400
     43 O45          6.4700    42.9690    19.4390 o          1 70D      -0.716500
     44 O46          8.1790    42.5800    20.5390 o          1 70D      -0.716500
     45 H62          8.9880    31.9620    27.4580 ha         1 70D       0.104000
     46 H61          7.8970    36.7590    28.2560 ha         1 70D       0.134000
     47 H63          9.1510    33.5990    25.6170 ha         1 70D       0.118000
     48 H64          7.2140    34.4780    32.4580 h4         1 70D       0.024100
     49 H58          2.3080    34.3120    27.4840 hc         1 70D       0.036367
     50 H57          1.6760    35.9090    27.9430 hc         1 70D       0.036367
     51 H59          0.6130    34.7250    27.1660 hc         1 70D       0.036367
     52 H47          1.8130    34.8330    25.1000 hc         1 70D       0.058700
     53 H48          1.1950    37.6810    26.0290 h1         1 70D       0.061700
     54 H49          0.0560    36.4770    25.4170 h1         1 70D       0.061700
     55 H50          3.4410    37.2940    27.4780 ha         1 70D       0.112000
     56 H51          5.7910    37.9930    27.3780 ha         1 70D       0.113000
     57 H52          6.3640    35.6110    23.8310 ha         1 70D       0.122000
     58 H54          3.5610    33.6530    23.9950 hc         1 70D       0.041700
     59 H53          3.0240    35.0490    23.0390 hc         1 70D       0.041700
     60 H55          4.6520    34.4080    22.8320 hc         1 70D       0.041700
     61 H56          7.8730    38.0970    26.2580 h1         1 70D       0.077700
     62 H60          9.0550    35.7960    24.9150 hn         1 70D       0.512000
     63 H66          8.2480    39.4860    21.9200 h1         1 70D       0.097200
     64 H65          7.5280    40.9660    22.5320 h1         1 70D       0.097200
     65 H67          4.6290    39.8210    18.6200 ha         1 70D       0.117000
     66 H68          2.7650    38.7560    19.8210 ha         1 70D       0.099000
     67 H69          5.0840    38.7240    23.4360 ha         1 70D       0.114000
     68 H70          2.1420    37.4690    21.8280 hn         1 70D       0.154000
     69 H73          7.7880    40.3080    25.7130 h1         1 70D       0.049700
     70 H71          6.7120    41.1800    24.5920 h1         1 70D       0.049700
     71 H72          6.1090    39.7410    25.4460 h1         1 70D       0.049700
     72 H75          8.0920    30.7250    30.8040 hn         1 70D       0.462500
     73 H74          8.3530    30.7580    29.1020 hn         1 70D       0.462500
     74 H76          6.6140    41.4780    17.4390 hc         1 70D       0.038950
     75 H77          6.7240    39.7220    17.4630 hc         1 70D       0.038950
     76 H79          9.1800    40.0510    17.2380 hc         1 70D       0.036700
     77 H78          9.1040    41.6800    17.9320 hc         1 70D       0.036700
     78 H80          8.6710    38.9740    19.4350 hc         1 70D       0.038950
     79 H81          9.3220    40.4440    20.1470 hc         1 70D       0.038950
     80 N38          8.4350    31.2280    29.9950 nv         1 70D      -1.048900
     81 F40          7.3020    36.4710    30.7140 f          1 70D      -0.185000
@<TRIPOS>BOND
     1     1    21 1   
     2     1    25 2   
     3     1    26 1   
     4     2     3 ar  
     5     2     6 ar  
     6     2    45 1   
     7     3     4 ar  
     8     3     9 ar  
     9     4     5 ar  
    10     4     7 ar  
    11     5    23 ar  
    12     5    46 1   
    13     6    23 ar  
    14     6    47 1   
    15     7     8 ar  
    16     7    81 1   
    17     8    24 ar  
    18     8    48 1   
    19     9    24 ar  
    20     9    80 1   
    21    10    12 1   
    22    10    49 1   
    23    10    50 1   
    24    10    51 1   
    25    11    27 1   
    26    11    28 ar  
    27    11    32 ar  
    28    12    13 1   
    29    12    14 1   
    30    12    52 1   
    31    13    34 1   
    32    13    53 1   
    33    13    54 1   
    34    14    15 ar  
    35    14    19 ar  
    36    15    16 ar  
    37    15    55 1   
    38    16    17 ar  
    39    16    56 1   
    40    17    18 ar  
    41    17    21 1   
    42    18    19 ar  
    43    18    57 1   
    44    19    20 1   
    45    20    58 1   
    46    20    59 1   
    47    20    60 1   
    48    21    22 1   
    49    21    61 1   
    50    22    23 1   
    51    22    62 1   
    52    26    27 1   
    53    26    37 1   
    54    27    63 1   
    55    27    64 1   
    56    28    29 ar  
    57    28    38 1   
    58    29    30 ar  
    59    29    65 1   
    60    30    31 ar  
    61    30    66 1   
    62    31    32 ar  
    63    31    33 1   
    64    32    67 1   
    65    33    35 1   
    66    33    68 1   
    67    34    35 1   
    68    35    36 2   
    69    37    69 1   
    70    37    70 1   
    71    37    71 1   
    72    38    39 1   
    73    38    40 1   
    74    38    42 1   
    75    39    43 1   
    76    39    44 1   
    77    40    41 1   
    78    40    74 1   
    79    40    75 1   
    80    41    42 1   
    81    41    76 1   
    82    41    77 1   
    83    42    78 1   
    84    42    79 1   
    85    72    80 1   
    86    73    80 1   
@<TRIPOS>SUBSTRUCTURE
     1 70D         1 TEMP              0 ****  ****    0 ROOT
