@<TRIPOS>MOLECULE
70D
   81    86     1     0     0
SMALL
abcg2


@<TRIPOS>ATOM
      1 C13          7.7690    37.7690    24.0660 c          1 70D       0.594100
      2 C18          9.2750    33.1510    27.6610 ca         1 70D      -0.044000
      3 C17          8.6960    33.4720    28.9110 ca         1 70D      -0.162000
      4 C16          7.9920    34.7040    29.0100 ca         1 70D       0.041000
      5 C15          7.8760    35.5620    27.9040 ca         1 70D      -0.207000
      6 C19          9.1550    33.9860    26.5860 ca         1 70D      -0.174000
      7 C20          7.4300    34.9950    30.2740 ca         1 70D       0.057000
      8 C21          7.5690    34.1480    31.3270 ca         1 70D       0.339900
      9 C23          8.7770    32.6370    30.0730 ca         1 70D       0.606900
     10 C11          1.2660    35.7450    27.2160 c3         1 70D      -0.084100
     11 C27          6.1890    39.3910    21.6840 ca         1 70D      -0.081300
     12 C1           1.8160    35.9070    25.7940 c3         1 70D      -0.043400
     13 C2           1.0380    37.0200    25.0820 c3         1 70D       0.183600
     14 C3           3.3100    36.1700    25.7430 ca         1 70D      -0.073300
     15 C4           3.8780    37.1210    26.5900 ca         1 70D      -0.086000
     16 C5           5.2230    37.4530    26.5150 ca         1 70D      -0.090000
     17 C6           6.0410    36.8250    25.5840 ca         1 70D      -0.114300
     18 C7           5.4860    35.8610    24.7500 ca         1 70D      -0.090000
     19 C8           4.1350    35.5220    24.8060 ca         1 70D      -0.067300
     20 C9           3.6070    34.4800    23.8530 c3         1 70D      -0.046800
     21 C10          7.5240    37.1700    25.4630 c3         1 70D       0.197800
     22 N12          8.3940    36.0220    25.5830 nu         1 70D      -0.950200
     23 C14          8.4490    35.2200    26.6850 ca         1 70D       0.372000
     24 N22          8.2360    32.9700    31.2330 nb         1 70D      -0.761000
     25 O24          8.2270    37.0440    23.1780 o          1 70D      -0.632100
     26 N25          7.4130    39.0500    23.8410 n          1 70D      -0.381800
     27 C26          7.4780    39.5520    22.4710 c3         1 70D       0.130300
     28 C28          6.0740    39.9310    20.3860 ca         1 70D       0.023700
     29 C29          4.8700    39.7490    19.7080 ca         1 70D      -0.094000
     30 C30          3.7950    39.0720    20.2730 ca         1 70D      -0.132000
     31 C31          3.9200    38.5450    21.5500 ca         1 70D      -0.066000
     32 C32          5.1210    38.6980    22.2380 ca         1 70D      -0.107000
     33 N33          2.8490    37.8250    22.1370 ns         1 70D      -0.148000
     34 O34          1.4390    37.1270    23.7010 os         1 70D      -0.482100
     35 C35          2.3840    38.0460    23.3920 c          1 70D       0.638100
     36 O36          2.7390    38.9460    24.1300 o          1 70D      -0.521000
     37 C37          6.8410    39.9490    24.8380 c3         1 70D       0.083300
     38 C39          7.1950    40.7170    19.7500 cy         1 70D      -0.174700
     39 C41          7.2770    42.1400    20.4060 c          1 70D       0.724000
     40 C42          7.1790    40.8760    18.1960 cy         1 70D      -0.065400
     41 C43          8.7010    40.6230    18.1780 cy         1 70D      -0.095400
     42 C44          8.5810    40.0190    19.5930 cy         1 70D      -0.065400
     43 O45          6.2200    42.8170    20.3620 o          1 70D      -0.716500
     44 O46          8.3680    42.5030    20.9080 o          1 70D      -0.716500
     45 H62          9.8320    32.2310    27.5400 ha         1 70D       0.104000
     46 H61          7.3330    36.4860    28.0210 ha         1 70D       0.134000
     47 H63          9.6040    33.7200    25.6370 ha         1 70D       0.118000
     48 H64          7.1330    34.3950    32.2880 h4         1 70D       0.024100
     49 H58          1.8040    34.9580    27.7450 hc         1 70D       0.036367
     50 H57          1.3580    36.6660    27.7940 hc         1 70D       0.036367
     51 H59          0.2090    35.4760    27.1840 hc         1 70D       0.036367
     52 H47          1.6080    34.9820    25.2570 hc         1 70D       0.058700
     53 H48          1.1830    37.9780    25.5770 h1         1 70D       0.061700
     54 H49         -0.0250    36.7810    25.0580 h1         1 70D       0.061700
     55 H50          3.2540    37.6320    27.3110 ha         1 70D       0.112000
     56 H51          5.6350    38.2000    27.1830 ha         1 70D       0.113000
     57 H52          6.1190    35.3630    24.0250 ha         1 70D       0.122000
     58 H54          3.1710    33.6320    24.3850 hc         1 70D       0.041700
     59 H53          2.8290    34.8880    23.2050 hc         1 70D       0.041700
     60 H55          4.4120    34.1050    23.2210 hc         1 70D       0.041700
     61 H56          7.7780    37.8960    26.2360 h1         1 70D       0.077700
     62 H60          8.6870    35.6380    24.6960 hn         1 70D       0.512000
     63 H66          8.2820    39.0270    21.9640 h1         1 70D       0.097200
     64 H65          7.7590    40.6030    22.5150 h1         1 70D       0.097200
     65 H67          4.7540    40.1600    18.7150 ha         1 70D       0.117000
     66 H68          2.8650    38.9610    19.7290 ha         1 70D       0.099000
     67 H69          5.2080    38.2610    23.2200 ha         1 70D       0.114000
     68 H70          2.3930    37.1080    21.5950 hn         1 70D       0.154000
     69 H73          7.2190    39.7270    25.8310 h1         1 70D       0.049700
     70 H71          7.1350    40.9660    24.5840 h1         1 70D       0.049700
     71 H72          5.7520    39.8920    24.8540 h1         1 70D       0.049700
     72 H75          9.2960    30.8380    30.8140 hn         1 70D       0.462500
     73 H74          9.5560    30.9780    29.1530 hn         1 70D       0.462500
     74 H76          6.8070    41.8220    17.8030 hc         1 70D       0.038950
     75 H77          6.6390    40.0590    17.7170 hc         1 70D       0.038950
     76 H79          9.0850    39.9750    17.3890 hc         1 70D       0.036700
     77 H78          9.2720    41.5510    18.1820 hc         1 70D       0.036700
     78 H80          8.4720    38.9340    19.5610 hc         1 70D       0.038950
     79 H81          9.3430    40.2920    20.3180 hc         1 70D       0.038950
     80 N38          9.4830    31.4550    30.0370 nv         1 70D      -1.048900
     81 F40          6.7320    36.1560    30.4250 f          1 70D      -0.185000
@<TRIPOS>BOND
     1     1    21 1   
     2     1    25 2   
     3     1    26 1   
     4     2     3 ar  
     5     2     6 ar  
     6     2    45 1   
     7     3     4 ar  
     8     3     9 ar  
     9     4     5 ar  
    10     4     7 ar  
    11     5    23 ar  
    12     5    46 1   
    13     6    23 ar  
    14     6    47 1   
    15     7     8 ar  
    16     7    81 1   
    17     8    24 ar  
    18     8    48 1   
    19     9    24 ar  
    20     9    80 1   
    21    10    12 1   
    22    10    49 1   
    23    10    50 1   
    24    10    51 1   
    25    11    27 1   
    26    11    28 ar  
    27    11    32 ar  
    28    12    13 1   
    29    12    14 1   
    30    12    52 1   
    31    13    34 1   
    32    13    53 1   
    33    13    54 1   
    34    14    15 ar  
    35    14    19 ar  
    36    15    16 ar  
    37    15    55 1   
    38    16    17 ar  
    39    16    56 1   
    40    17    18 ar  
    41    17    21 1   
    42    18    19 ar  
    43    18    57 1   
    44    19    20 1   
    45    20    58 1   
    46    20    59 1   
    47    20    60 1   
    48    21    22 1   
    49    21    61 1   
    50    22    23 1   
    51    22    62 1   
    52    26    27 1   
    53    26    37 1   
    54    27    63 1   
    55    27    64 1   
    56    28    29 ar  
    57    28    38 1   
    58    29    30 ar  
    59    29    65 1   
    60    30    31 ar  
    61    30    66 1   
    62    31    32 ar  
    63    31    33 1   
    64    32    67 1   
    65    33    35 1   
    66    33    68 1   
    67    34    35 1   
    68    35    36 2   
    69    37    69 1   
    70    37    70 1   
    71    37    71 1   
    72    38    39 1   
    73    38    40 1   
    74    38    42 1   
    75    39    43 1   
    76    39    44 1   
    77    40    41 1   
    78    40    74 1   
    79    40    75 1   
    80    41    42 1   
    81    41    76 1   
    82    41    77 1   
    83    42    78 1   
    84    42    79 1   
    85    72    80 1   
    86    73    80 1   
@<TRIPOS>SUBSTRUCTURE
     1 70D         1 TEMP              0 ****  ****    0 ROOT
