@<TRIPOS>MOLECULE
70E
  132   132     1     0     0
SMALL
No Charge or Current Charge


@<TRIPOS>ATOM
      1 CAN         -2.6600    -0.3190    -1.5120 c          1 70E       0.597100
      2 CAP         -2.5070     1.0620    -0.8550 c3         1 70E      -0.154700
      3 CAQ         -3.7410     1.9690    -1.1300 c3         1 70E      -0.066400
      4 CAR         -5.0760     1.3850    -0.6090 c3         1 70E      -0.077400
      5 CAS         -6.2790     2.3230    -0.8480 c3         1 70E      -0.075400
      6 CAT         -7.6120     1.7400    -0.3310 c3         1 70E      -0.073400
      7 CAU         -8.8150     2.6770    -0.5710 c3         1 70E      -0.075400
      8 CAV        -10.1480     2.0940    -0.0540 c3         1 70E      -0.073400
      9 CAW        -11.3520     3.0310    -0.2940 c3         1 70E      -0.075400
     10 CAX        -12.6850     2.4480     0.2220 c3         1 70E      -0.073400
     11 CAY        -13.8890     3.3850    -0.0180 c3         1 70E      -0.074400
     12 CAZ        -15.2220     2.8020     0.4980 c3         1 70E      -0.073400
     13 CBA        -16.4250     3.7400     0.2570 c3         1 70E      -0.075400
     14 CBB        -17.7590     3.1560     0.7730 c3         1 70E      -0.075400
     15 CBC        -18.9620     4.0940     0.5330 c3         1 70E      -0.075400
     16 CBD        -20.2930     3.5120     1.0470 c3         1 70E      -0.088100
     17 CBE         -1.1610     1.7310    -1.2430 c3         1 70E       0.184300
     18 CBG          0.0750     0.8820    -0.8490 c3         1 70E      -0.112400
     19 CBH          1.4280     1.6040    -1.0590 c3         1 70E      -0.070400
     20 CBI          2.6390     0.7540    -0.6170 c3         1 70E      -0.075400
     21 CBJ          3.9900     1.4730    -0.8250 c3         1 70E      -0.073400
     22 CBK          5.2010     0.6230    -0.3840 c3         1 70E      -0.074400
     23 CBL          6.5520     1.3410    -0.5930 c3         1 70E      -0.074400
     24 CBM          7.7640     0.4910    -0.1510 c3         1 70E      -0.074400
     25 CBN          9.1150     1.2100    -0.3600 c3         1 70E      -0.074400
     26 CBO         10.3260     0.3600     0.0810 c3         1 70E      -0.074400
     27 CBP         11.6770     1.0780    -0.1280 c3         1 70E      -0.074400
     28 CBQ         12.8890     0.2280     0.3130 c3         1 70E      -0.074400
     29 CBR         14.2400     0.9470     0.1030 c3         1 70E      -0.074400
     30 CBS         15.4510     0.0970     0.5440 c3         1 70E      -0.074400
     31 CBT         16.8020     0.8150     0.3340 c3         1 70E      -0.074400
     32 CBU         18.0140    -0.0350     0.7750 c3         1 70E      -0.074400
     33 CBV         19.3650     0.6830     0.5650 c3         1 70E      -0.074400
     34 CBW         20.5760    -0.1670     1.0050 c3         1 70E      -0.075400
     35 CBX         21.9270     0.5510     0.7950 c3         1 70E      -0.075400
     36 CBY         23.1370    -0.2970     1.2340 c3         1 70E      -0.088100
     37 OAM         -2.6420    -0.4950    -2.7230 o          1 70E      -0.509000
     38 OAO         -2.8150    -1.3150    -0.5880 os         1 70E      -0.438100
     39 CAG         -2.9650    -2.6660    -1.0720 c3         1 70E       0.172600
     40 OBF         -1.1350     1.9800    -2.6530 oh         1 70E      -0.657000
     41 C1          -1.7630    -4.5380     1.9810 c6         1 70E       0.358300
     42 O1          -2.6580    -3.9620     2.9350 oh         1 70E      -0.736000
     43 C2          -2.1640    -6.0170     1.6170 c6         1 70E       0.119300
     44 O2          -1.2010    -6.6200     0.7120 oh         1 70E      -0.696000
     45 C3          -3.5870    -6.0060     0.9530 c6         1 70E       0.146300
     46 O3          -4.5710    -5.5630     1.9080 oh         1 70E      -0.708000
     47 C4          -3.5670    -5.0680    -0.3060 c6         1 70E       0.154300
     48 O4          -2.6720    -5.6210    -1.2900 oh         1 70E      -0.697000
     49 C5          -3.0980    -3.6380     0.1340 c6         1 70E       0.175300
     50 O5          -1.8020    -3.7070     0.8040 os         1 70E      -0.454000
     51 H1          -2.4830     0.9000     0.2300 hc         1 70E       0.078700
     52 H2          -3.5760     2.9460    -0.6580 hc         1 70E       0.057200
     53 H3          -3.8320     2.1530    -2.2080 hc         1 70E       0.057200
     54 H4          -5.2740     0.4240    -1.1000 hc         1 70E       0.040700
     55 H5          -4.9860     1.1830     0.4660 hc         1 70E       0.040700
     56 H6          -6.0900     3.2840    -0.3540 hc         1 70E       0.039700
     57 H7          -6.3680     2.5270    -1.9230 hc         1 70E       0.039700
     58 H8          -7.8000     0.7780    -0.8250 hc         1 70E       0.037700
     59 H9          -7.5230     1.5350     0.7430 hc         1 70E       0.037700
     60 H10         -8.6270     3.6380    -0.0760 hc         1 70E       0.037700
     61 H11         -8.9040     2.8820    -1.6450 hc         1 70E       0.037700
     62 H12        -10.3360     1.1320    -0.5490 hc         1 70E       0.037700
     63 H13        -10.0600     1.8890     1.0200 hc         1 70E       0.037700
     64 H14        -11.1640     3.9920     0.2010 hc         1 70E       0.036700
     65 H15        -11.4400     3.2360    -1.3690 hc         1 70E       0.036700
     66 H16        -12.8730     1.4860    -0.2730 hc         1 70E       0.037200
     67 H17        -12.5970     2.2430     1.2970 hc         1 70E       0.037200
     68 H18        -13.7010     4.3470     0.4760 hc         1 70E       0.036700
     69 H19        -13.9770     3.5900    -1.0930 hc         1 70E       0.036700
     70 H20        -15.4100     1.8410     0.0030 hc         1 70E       0.036700
     71 H21        -15.1340     2.5970     1.5720 hc         1 70E       0.036700
     72 H22        -16.2380     4.7010     0.7520 hc         1 70E       0.036700
     73 H23        -16.5140     3.9440    -0.8170 hc         1 70E       0.036700
     74 H24        -17.9470     2.1950     0.2780 hc         1 70E       0.036700
     75 H25        -17.6710     2.9510     1.8480 hc         1 70E       0.036700
     76 H26        -18.7790     5.0550     1.0280 hc         1 70E       0.036700
     77 H27        -19.0550     4.2990    -0.5410 hc         1 70E       0.036700
     78 H28        -21.1160     4.2110     0.8550 hc         1 70E       0.031367
     79 H29        -20.5230     2.5650     0.5440 hc         1 70E       0.031367
     80 H30        -20.2450     3.3280     2.1270 hc         1 70E       0.031367
     81 H31         -1.0930     2.6850    -0.6990 h1         1 70E       0.070700
     82 H32         -0.0110     0.6070     0.2100 hc         1 70E       0.047700
     83 H33          0.0810    -0.0570    -1.4170 hc         1 70E       0.047700
     84 H34          1.5430     1.8650    -2.1180 hc         1 70E       0.045200
     85 H35          1.4240     2.5460    -0.4960 hc         1 70E       0.045200
     86 H36          2.5300     0.4940     0.4430 hc         1 70E       0.037700
     87 H37          2.6420    -0.1880    -1.1800 hc         1 70E       0.037700
     88 H38          4.1000     1.7330    -1.8860 hc         1 70E       0.038200
     89 H39          3.9870     2.4150    -0.2630 hc         1 70E       0.038200
     90 H40          5.0920     0.3630     0.6760 hc         1 70E       0.037200
     91 H41          5.2040    -0.3200    -0.9460 hc         1 70E       0.037200
     92 H42          6.6620     1.6010    -1.6530 hc         1 70E       0.037200
     93 H43          6.5500     2.2830    -0.0300 hc         1 70E       0.037200
     94 H44          7.6540     0.2310     0.9090 hc         1 70E       0.037200
     95 H45          7.7660    -0.4510    -0.7130 hc         1 70E       0.037200
     96 H46          9.2240     1.4700    -1.4210 hc         1 70E       0.037200
     97 H47          9.1120     2.1520     0.2020 hc         1 70E       0.037200
     98 H48         10.2170     0.1000     1.1420 hc         1 70E       0.037200
     99 H49         10.3290    -0.5830    -0.4810 hc         1 70E       0.037200
    100 H50         11.7860     1.3380    -1.1890 hc         1 70E       0.037200
    101 H51         11.6750     2.0210     0.4340 hc         1 70E       0.037200
    102 H52         12.7800    -0.0320     1.3730 hc         1 70E       0.036700
    103 H53         12.8910    -0.7140    -0.2490 hc         1 70E       0.036700
    104 H54         14.3490     1.2070    -0.9570 hc         1 70E       0.037200
    105 H55         14.2370     1.8890     0.6660 hc         1 70E       0.037200
    106 H56         15.3420    -0.1630     1.6050 hc         1 70E       0.037200
    107 H57         15.4530    -0.8460    -0.0180 hc         1 70E       0.037200
    108 H58         16.9110     1.0750    -0.7260 hc         1 70E       0.037200
    109 H59         16.8000     1.7570     0.8970 hc         1 70E       0.037200
    110 H60         17.9050    -0.2950     1.8350 hc         1 70E       0.036700
    111 H61         18.0160    -0.9770     0.2130 hc         1 70E       0.036700
    112 H62         19.4730     0.9430    -0.4960 hc         1 70E       0.036700
    113 H63         19.3630     1.6260     1.1270 hc         1 70E       0.036700
    114 H64         20.4680    -0.4270     2.0660 hc         1 70E       0.036700
    115 H65         20.5790    -1.1090     0.4430 hc         1 70E       0.036700
    116 H66         22.0400     0.8110    -0.2650 hc         1 70E       0.036700
    117 H67         21.9300     1.4930     1.3570 hc         1 70E       0.036700
    118 H68         23.0710    -0.5440     2.3010 hc         1 70E       0.031367
    119 H69         23.1820    -1.2320     0.6640 hc         1 70E       0.031367
    120 H70         24.0700     0.2530     1.0660 hc         1 70E       0.031367
    121 H71         -3.8670    -2.7500    -1.6940 h1         1 70E       0.069700
    122 H72         -2.1010    -2.9660    -1.6800 h1         1 70E       0.069700
    123 H73         -1.5070     1.1760    -3.0840 ho         1 70E       0.462000
    124 H74         -0.7400    -4.5370     2.3890 h2         1 70E       0.058700
    125 H76         -2.2160    -6.6070     2.5440 h1         1 70E       0.042700
    126 H77         -0.4290    -6.9090     1.2560 ho         1 70E       0.508000
    127 H78         -3.8350    -7.0270     0.6250 h1         1 70E       0.047700
    128 H79         -4.0780    -4.9080     2.4800 ho         1 70E       0.514000
    129 H80         -4.5840    -4.9990    -0.7190 h1         1 70E       0.053700
    130 H81         -1.9460    -6.0270    -0.7380 ho         1 70E       0.508000
    131 H82         -3.8450    -3.2080     0.8170 h1         1 70E       0.073700
    132 H75         -2.2700    -3.0810     3.1440 ho         1 70E       0.521000
@<TRIPOS>BOND
     1     1     2 1   
     2     1    37 2   
     3     1    38 1   
     4     2     3 1   
     5     2    17 1   
     6     2    51 1   
     7     3     4 1   
     8     3    52 1   
     9     3    53 1   
    10     4     5 1   
    11     4    54 1   
    12     4    55 1   
    13     5     6 1   
    14     5    56 1   
    15     5    57 1   
    16     6     7 1   
    17     6    58 1   
    18     6    59 1   
    19     7     8 1   
    20     7    60 1   
    21     7    61 1   
    22     8     9 1   
    23     8    62 1   
    24     8    63 1   
    25     9    10 1   
    26     9    64 1   
    27     9    65 1   
    28    10    11 1   
    29    10    66 1   
    30    10    67 1   
    31    11    12 1   
    32    11    68 1   
    33    11    69 1   
    34    12    13 1   
    35    12    70 1   
    36    12    71 1   
    37    13    14 1   
    38    13    72 1   
    39    13    73 1   
    40    14    15 1   
    41    14    74 1   
    42    14    75 1   
    43    15    16 1   
    44    15    76 1   
    45    15    77 1   
    46    16    78 1   
    47    16    79 1   
    48    16    80 1   
    49    17    18 1   
    50    17    40 1   
    51    17    81 1   
    52    18    19 1   
    53    18    82 1   
    54    18    83 1   
    55    19    20 1   
    56    19    84 1   
    57    19    85 1   
    58    20    21 1   
    59    20    86 1   
    60    20    87 1   
    61    21    22 1   
    62    21    88 1   
    63    21    89 1   
    64    22    23 1   
    65    22    90 1   
    66    22    91 1   
    67    23    24 1   
    68    23    92 1   
    69    23    93 1   
    70    24    25 1   
    71    24    94 1   
    72    24    95 1   
    73    25    26 1   
    74    25    96 1   
    75    25    97 1   
    76    26    27 1   
    77    26    98 1   
    78    26    99 1   
    79    27    28 1   
    80    27   100 1   
    81    27   101 1   
    82    28    29 1   
    83    28   102 1   
    84    28   103 1   
    85    29    30 1   
    86    29   104 1   
    87    29   105 1   
    88    30    31 1   
    89    30   106 1   
    90    30   107 1   
    91    31    32 1   
    92    31   108 1   
    93    31   109 1   
    94    32    33 1   
    95    32   110 1   
    96    32   111 1   
    97    33    34 1   
    98    33   112 1   
    99    33   113 1   
   100    34    35 1   
   101    34   114 1   
   102    34   115 1   
   103    35    36 1   
   104    35   116 1   
   105    35   117 1   
   106    36   118 1   
   107    36   119 1   
   108    36   120 1   
   109    38    39 1   
   110    39    49 1   
   111    39   121 1   
   112    39   122 1   
   113    40   123 1   
   114    41    42 1   
   115    41    43 1   
   116    41    50 1   
   117    41   124 1   
   118    42   132 1   
   119    43    44 1   
   120    43    45 1   
   121    43   125 1   
   122    44   126 1   
   123    45    46 1   
   124    45    47 1   
   125    45   127 1   
   126    46   128 1   
   127    47    48 1   
   128    47    49 1   
   129    47   129 1   
   130    48   130 1   
   131    49    50 1   
   132    49   131 1   
@<TRIPOS>SUBSTRUCTURE
     1 70E         1 TEMP              0 ****  ****    0 ROOT
