@<TRIPOS>MOLECULE
70E
  132   132     1     0     0
SMALL
bcc


@<TRIPOS>ATOM
      1 CAN         -2.3540    -0.2040    -0.9260 c          1 70E       0.646100
      2 CAP         -2.2750     1.0960    -0.1640 c3         1 70E      -0.154700
      3 CAQ         -3.5160     1.9470    -0.4680 c3         1 70E      -0.066400
      4 CAR         -4.8160     1.3880     0.0980 c3         1 70E      -0.077400
      5 CAS         -6.0170     2.2510    -0.2680 c3         1 70E      -0.075400
      6 CAT         -7.3320     1.7430     0.3100 c3         1 70E      -0.073400
      7 CAU         -8.5370     2.5290    -0.1900 c3         1 70E      -0.075400
      8 CAV         -9.8680     2.0440     0.3710 c3         1 70E      -0.073400
      9 CAW        -11.0600     2.7850    -0.2200 c3         1 70E      -0.075400
     10 CAX        -12.4070     2.3080     0.3070 c3         1 70E      -0.073400
     11 CAY        -13.5840     3.0320    -0.3360 c3         1 70E      -0.074400
     12 CAZ        -14.9420     2.5600     0.1650 c3         1 70E      -0.073400
     13 CBA        -16.1070     3.2770    -0.5060 c3         1 70E      -0.075400
     14 CBB        -17.4720     2.8070    -0.0200 c3         1 70E      -0.075400
     15 CBC        -18.6320     3.5210    -0.7030 c3         1 70E      -0.075400
     16 CBD        -19.9930     3.0440    -0.2160 c3         1 70E      -0.088100
     17 CBE         -0.9700     1.8500    -0.4890 c3         1 70E       0.161100
     18 CBG          0.2750     1.0100    -0.2060 c3         1 70E      -0.112400
     19 CBH          1.5730     1.8010    -0.2990 c3         1 70E      -0.070400
     20 CBI          2.8080     0.9280    -0.1160 c3         1 70E      -0.075400
     21 CBJ          4.1150     1.7080    -0.1900 c3         1 70E      -0.073400
     22 CBK          5.3460     0.8160    -0.0970 c3         1 70E      -0.074400
     23 CBL          6.6610     1.5860    -0.1310 c3         1 70E      -0.074400
     24 CBM          7.8830     0.6770    -0.0940 c3         1 70E      -0.074400
     25 CBN          9.2060     1.4340    -0.0900 c3         1 70E      -0.074400
     26 CBO         10.4190     0.5130    -0.0760 c3         1 70E      -0.074400
     27 CBP         11.7480     1.2580    -0.0420 c3         1 70E      -0.074400
     28 CBQ         12.9550     0.3270    -0.0360 c3         1 70E      -0.074400
     29 CBR         14.2880     1.0620     0.0210 c3         1 70E      -0.074400
     30 CBS         15.4890     0.1250     0.0240 c3         1 70E      -0.074400
     31 CBT         16.8250     0.8540     0.0970 c3         1 70E      -0.074400
     32 CBU         18.0230    -0.0890     0.1000 c3         1 70E      -0.074400
     33 CBV         19.3610     0.6350     0.1800 c3         1 70E      -0.074400
     34 CBW         20.5560    -0.3110     0.1820 c3         1 70E      -0.075400
     35 CBX         21.8970     0.4090     0.2630 c3         1 70E      -0.075400
     36 CBY         23.0800    -0.5500     0.2630 c3         1 70E      -0.088100
     37 OAM         -2.1560    -0.3000    -2.1170 o          1 70E      -0.558000
     38 OAO         -2.6830    -1.2310    -0.1620 os         1 70E      -0.414900
     39 CAG         -2.8270    -2.5170    -0.7790 c3         1 70E       0.149400
     40 OBF         -0.9630     2.3860    -1.7920 oh         1 70E      -0.594800
     41 C1          -3.0670    -4.3170     2.4030 c6         1 70E       0.311900
     42 O1          -4.1360    -3.6840     3.0320 oh         1 70E      -0.613800
     43 C2          -3.5150    -5.7210     1.9780 c6         1 70E       0.096100
     44 O2          -2.3990    -6.5220     1.6790 oh         1 70E      -0.573800
     45 C3          -4.4070    -5.6920     0.7300 c6         1 70E       0.123100
     46 O3          -5.6980    -5.2150     1.0220 oh         1 70E      -0.585800
     47 C4          -3.8500    -4.7710    -0.3640 c6         1 70E       0.131100
     48 O4          -2.7160    -5.3110    -0.9900 oh         1 70E      -0.574800
     49 C5          -3.4740    -3.4260     0.2400 c6         1 70E       0.152100
     50 O5          -2.5700    -3.5820     1.3180 os         1 70E      -0.407600
     51 H1          -2.2590     0.8760     0.9070 hc         1 70E       0.078700
     52 H2          -3.3470     2.9440    -0.0470 hc         1 70E       0.057200
     53 H3          -3.6130     2.0860    -1.5470 hc         1 70E       0.057200
     54 H4          -4.9920     0.3710    -0.2690 hc         1 70E       0.040700
     55 H5          -4.7340     1.3070     1.1870 hc         1 70E       0.040700
     56 H6          -5.8460     3.2800     0.0650 hc         1 70E       0.039700
     57 H7          -6.1010     2.2970    -1.3590 hc         1 70E       0.039700
     58 H8          -7.4580     0.6860     0.0510 hc         1 70E       0.037700
     59 H9          -7.2920     1.7840     1.4040 hc         1 70E       0.037700
     60 H10         -8.4080     3.5900     0.0500 hc         1 70E       0.037700
     61 H11         -8.5680     2.4710    -1.2840 hc         1 70E       0.037700
     62 H12         -9.9750     0.9710     0.1730 hc         1 70E       0.037700
     63 H13         -9.8700     2.1520     1.4610 hc         1 70E       0.037700
     64 H14        -10.9540     3.8580    -0.0260 hc         1 70E       0.036700
     65 H15        -11.0430     2.6750    -1.3110 hc         1 70E       0.036700
     66 H16        -12.5050     1.2310     0.1330 hc         1 70E       0.037200
     67 H17        -12.4450     2.4430     1.3940 hc         1 70E       0.037200
     68 H18        -13.4870     4.1090    -0.1600 hc         1 70E       0.036700
     69 H19        -13.5340     2.9000    -1.4230 hc         1 70E       0.036700
     70 H20        -15.0360     1.4810    -0.0020 hc         1 70E       0.036700
     71 H21        -15.0020     2.7030     1.2500 hc         1 70E       0.036700
     72 H22        -16.0140     4.3560    -0.3380 hc         1 70E       0.036700
     73 H23        -16.0400     3.1350    -1.5910 hc         1 70E       0.036700
     74 H24        -17.5640     1.7270    -0.1850 hc         1 70E       0.036700
     75 H25        -17.5440     2.9530     1.0630 hc         1 70E       0.036700
     76 H26        -18.5400     4.5990    -0.5380 hc         1 70E       0.036700
     77 H27        -18.5580     3.3750    -1.7860 hc         1 70E       0.036700
     78 H28        -20.8060     3.5670    -0.7190 hc         1 70E       0.031367
     79 H29        -20.1240     1.9760    -0.3990 hc         1 70E       0.031367
     80 H30        -20.1070     3.2090     0.8570 hc         1 70E       0.031367
     81 H31         -0.9550     2.7150     0.1830 h1         1 70E       0.070700
     82 H32          0.1870     0.5730     0.7950 hc         1 70E       0.047700
     83 H33          0.3190     0.1670    -0.9050 hc         1 70E       0.047700
     84 H34          1.6270     2.3010    -1.2700 hc         1 70E       0.045200
     85 H35          1.5700     2.5960     0.4550 hc         1 70E       0.045200
     86 H36          2.7520     0.4070     0.8460 hc         1 70E       0.037700
     87 H37          2.8110     0.1460    -0.8830 hc         1 70E       0.037700
     88 H38          4.1480     2.2740    -1.1270 hc         1 70E       0.038200
     89 H39          4.1400     2.4530     0.6140 hc         1 70E       0.038200
     90 H40          5.2990     0.2240     0.8250 hc         1 70E       0.037200
     91 H41          5.3290     0.0930    -0.9200 hc         1 70E       0.037200
     92 H42          6.6970     2.2060    -1.0340 hc         1 70E       0.037200
     93 H43          6.6970     2.2810     0.7150 hc         1 70E       0.037200
     94 H44          7.8320     0.0360     0.7940 hc         1 70E       0.037200
     95 H45          7.8550     0.0000    -0.9560 hc         1 70E       0.037200
     96 H46          9.2550     2.0870    -0.9690 hc         1 70E       0.037200
     97 H47          9.2420     2.0960     0.7820 hc         1 70E       0.037200
     98 H48         10.3570    -0.1540     0.7910 hc         1 70E       0.037200
     99 H49         10.3900    -0.1370    -0.9590 hc         1 70E       0.037200
    100 H50         11.8120     1.9300    -0.9050 hc         1 70E       0.037200
    101 H51         11.7810     1.9000     0.8450 hc         1 70E       0.037200
    102 H52         12.8800    -0.3550     0.8180 hc         1 70E       0.036700
    103 H53         12.9270    -0.3060    -0.9310 hc         1 70E       0.036700
    104 H54         14.3640     1.7470    -0.8310 hc         1 70E       0.037200
    105 H55         14.3160     1.6920     0.9180 hc         1 70E       0.037200
    106 H56         15.4060    -0.5650     0.8710 hc         1 70E       0.037200
    107 H57         15.4640    -0.4990    -0.8760 hc         1 70E       0.037200
    108 H58         16.9100     1.5450    -0.7490 hc         1 70E       0.037200
    109 H59         16.8510     1.4760     0.9990 hc         1 70E       0.037200
    110 H60         17.9340    -0.7830     0.9430 hc         1 70E       0.036700
    111 H61         17.9980    -0.7080    -0.8040 hc         1 70E       0.036700
    112 H62         19.4500     1.3300    -0.6630 hc         1 70E       0.036700
    113 H63         19.3860     1.2540     1.0850 hc         1 70E       0.036700
    114 H64         20.4660    -1.0060     1.0250 hc         1 70E       0.036700
    115 H65         20.5300    -0.9290    -0.7230 hc         1 70E       0.036700
    116 H66         21.9860     1.1030    -0.5790 hc         1 70E       0.036700
    117 H67         21.9230     1.0260     1.1670 hc         1 70E       0.036700
    118 H68         23.0330    -1.2310     1.1140 hc         1 70E       0.031367
    119 H69         23.0930    -1.1570    -0.6450 hc         1 70E       0.031367
    120 H70         24.0310    -0.0180     0.3170 hc         1 70E       0.031367
    121 H71         -3.4670    -2.4460    -1.6610 h1         1 70E       0.069700
    122 H72         -1.8480    -2.8850    -1.0900 h1         1 70E       0.069700
    123 H73         -1.0530     1.6530    -2.4130 ho         1 70E       0.423000
    124 H74         -2.2120    -4.4080     3.0840 h2         1 70E       0.058700
    125 H76         -4.0930    -6.1550     2.8080 h1         1 70E       0.042700
    126 H77         -1.9020    -6.6630     2.4910 ho         1 70E       0.409000
    127 H78         -4.4530    -6.7190     0.3350 h1         1 70E       0.047700
    128 H79         -6.0410    -5.6890     1.7850 ho         1 70E       0.415000
    129 H80         -4.6590    -4.5980    -1.0900 h1         1 70E       0.053700
    130 H81         -2.9310    -6.1910    -1.3140 ho         1 70E       0.409000
    131 H82         -4.4030    -2.9500     0.5770 h1         1 70E       0.073700
    132 H75         -3.8160    -2.8740     3.4430 ho         1 70E       0.422000
@<TRIPOS>BOND
     1     1     2 1   
     2     1    37 2   
     3     1    38 1   
     4     2     3 1   
     5     2    17 1   
     6     2    51 1   
     7     3     4 1   
     8     3    52 1   
     9     3    53 1   
    10     4     5 1   
    11     4    54 1   
    12     4    55 1   
    13     5     6 1   
    14     5    56 1   
    15     5    57 1   
    16     6     7 1   
    17     6    58 1   
    18     6    59 1   
    19     7     8 1   
    20     7    60 1   
    21     7    61 1   
    22     8     9 1   
    23     8    62 1   
    24     8    63 1   
    25     9    10 1   
    26     9    64 1   
    27     9    65 1   
    28    10    11 1   
    29    10    66 1   
    30    10    67 1   
    31    11    12 1   
    32    11    68 1   
    33    11    69 1   
    34    12    13 1   
    35    12    70 1   
    36    12    71 1   
    37    13    14 1   
    38    13    72 1   
    39    13    73 1   
    40    14    15 1   
    41    14    74 1   
    42    14    75 1   
    43    15    16 1   
    44    15    76 1   
    45    15    77 1   
    46    16    78 1   
    47    16    79 1   
    48    16    80 1   
    49    17    18 1   
    50    17    40 1   
    51    17    81 1   
    52    18    19 1   
    53    18    82 1   
    54    18    83 1   
    55    19    20 1   
    56    19    84 1   
    57    19    85 1   
    58    20    21 1   
    59    20    86 1   
    60    20    87 1   
    61    21    22 1   
    62    21    88 1   
    63    21    89 1   
    64    22    23 1   
    65    22    90 1   
    66    22    91 1   
    67    23    24 1   
    68    23    92 1   
    69    23    93 1   
    70    24    25 1   
    71    24    94 1   
    72    24    95 1   
    73    25    26 1   
    74    25    96 1   
    75    25    97 1   
    76    26    27 1   
    77    26    98 1   
    78    26    99 1   
    79    27    28 1   
    80    27   100 1   
    81    27   101 1   
    82    28    29 1   
    83    28   102 1   
    84    28   103 1   
    85    29    30 1   
    86    29   104 1   
    87    29   105 1   
    88    30    31 1   
    89    30   106 1   
    90    30   107 1   
    91    31    32 1   
    92    31   108 1   
    93    31   109 1   
    94    32    33 1   
    95    32   110 1   
    96    32   111 1   
    97    33    34 1   
    98    33   112 1   
    99    33   113 1   
   100    34    35 1   
   101    34   114 1   
   102    34   115 1   
   103    35    36 1   
   104    35   116 1   
   105    35   117 1   
   106    36   118 1   
   107    36   119 1   
   108    36   120 1   
   109    38    39 1   
   110    39    49 1   
   111    39   121 1   
   112    39   122 1   
   113    40   123 1   
   114    41    42 1   
   115    41    43 1   
   116    41    50 1   
   117    41   124 1   
   118    42   132 1   
   119    43    44 1   
   120    43    45 1   
   121    43   125 1   
   122    44   126 1   
   123    45    46 1   
   124    45    47 1   
   125    45   127 1   
   126    46   128 1   
   127    47    48 1   
   128    47    49 1   
   129    47   129 1   
   130    48   130 1   
   131    49    50 1   
   132    49   131 1   
@<TRIPOS>SUBSTRUCTURE
     1 70E         1 TEMP              0 ****  ****    0 ROOT
