@<TRIPOS>MOLECULE
70G
   33    34     1     0     0
SMALL
bcc


@<TRIPOS>ATOM
      1 C10         -1.6860    -0.4970    -0.6830 c3         1 70G      -0.210400
      2 C11         -3.1890    -0.5440    -1.0130 c          1 70G       0.925600
      3 C14          2.6800     1.1220    -1.0200 ca         1 70G      -0.139000
      4 C15          2.4120     2.3950    -0.5520 ca         1 70G      -0.141000
      5 C02          0.7550     1.4750     0.9550 ca         1 70G      -0.063300
      6 C03          0.9940     0.1840     0.4490 ca         1 70G      -0.027300
      7 C04          1.9900     0.0170    -0.5240 ca         1 70G      -0.071300
      8 C05          2.3890    -1.3540    -1.0050 c6         1 70G      -0.028100
      9 C06          2.1570    -2.3930     0.0780 c6         1 70G      -0.072400
     10 C07          0.6890    -2.3650     0.4530 c6         1 70G      -0.075400
     11 C08          0.2070    -1.0040     0.9810 c6         1 70G      -0.020400
     12 C09         -1.3120    -0.8990     0.7340 c3         1 70G      -0.049400
     13 O12         -3.4980    -0.2530    -2.1880 o          1 70G      -0.849300
     14 O13         -3.9800    -0.8540    -0.1000 o          1 70G      -0.849300
     15 C16          1.4640     2.5600     0.4440 ca         1 70G      -0.139000
     16 H1          -1.1590    -1.1250    -1.4110 hc         1 70G       0.022200
     17 H2          -1.3330     0.5200    -0.8850 hc         1 70G       0.022200
     18 H5          -0.2900     0.9560     2.7900 hc         1 70G       0.041700
     19 H6           0.0120     2.6760     2.5660 hc         1 70G       0.041700
     20 H7          -1.2490     1.8800     1.6470 hc         1 70G       0.041700
     21 H8           1.8130    -1.6320    -1.8950 hc         1 70G       0.041700
     22 H9           3.4350    -1.3350    -1.3180 hc         1 70G       0.041700
     23 H10          2.4400    -3.3860    -0.2770 hc         1 70G       0.029200
     24 H11          2.7860    -2.1730     0.9460 hc         1 70G       0.029200
     25 H12          0.1140    -2.6360    -0.4390 hc         1 70G       0.044200
     26 H13          0.4590    -3.1240     1.2040 hc         1 70G       0.044200
     27 H14          0.3550    -1.0140     2.0690 hc         1 70G       0.029700
     28 H15         -1.7740    -0.2090     1.4390 hc         1 70G       0.041700
     29 H16         -1.7460    -1.8770     0.9650 hc         1 70G       0.041700
     30 H18          1.2730     3.5490     0.8440 ha         1 70G       0.116000
     31 H3           3.4490     0.9720    -1.7690 ha         1 70G       0.114000
     32 C01         -0.2410     1.7520     2.0470 c3         1 70G      -0.047800
     33 H4           2.9570     3.2480    -0.9370 ha         1 70G       0.115000
@<TRIPOS>BOND
     1     1     2 1   
     2     1    12 1   
     3     1    16 1   
     4     1    17 1   
     5     2    13 1   
     6     2    14 1   
     7     3     4 ar  
     8     3     7 ar  
     9     3    31 1   
    10     4    15 ar  
    11     4    33 1   
    12     5     6 ar  
    13     5    15 ar  
    14     5    32 1   
    15     6     7 ar  
    16     6    11 1   
    17     7     8 1   
    18     8     9 1   
    19     8    21 1   
    20     8    22 1   
    21     9    10 1   
    22     9    23 1   
    23     9    24 1   
    24    10    11 1   
    25    10    25 1   
    26    10    26 1   
    27    11    12 1   
    28    11    27 1   
    29    12    28 1   
    30    12    29 1   
    31    15    30 1   
    32    18    32 1   
    33    19    32 1   
    34    20    32 1   
@<TRIPOS>SUBSTRUCTURE
     1 70G         1 TEMP              0 ****  ****    0 ROOT
