@<TRIPOS>MOLECULE
70G
   33    34     1     0     0
SMALL
No Charge or Current Charge


@<TRIPOS>ATOM
      1 C10         -1.8030    -0.4550    -0.7310 c3         1 70G      -0.210400
      2 C11         -3.3380    -0.4690    -0.8210 c          1 70G       0.715000
      3 C14          2.7910     1.1850    -0.9440 ca         1 70G      -0.121000
      4 C15          2.4650     2.4580    -0.4680 ca         1 70G      -0.123000
      5 C02          0.7360     1.4830     0.9580 ca         1 70G      -0.063300
      6 C03          1.0120     0.1840     0.4290 ca         1 70G      -0.027300
      7 C04          2.0910     0.0520    -0.4930 ca         1 70G      -0.071300
      8 C05          2.5580    -1.3150    -0.9930 c6         1 70G      -0.028100
      9 C06          2.2120    -2.4350     0.0010 c6         1 70G      -0.072400
     10 C07          0.7000    -2.4220     0.2510 c6         1 70G      -0.075400
     11 C08          0.2070    -1.0810     0.8780 c6         1 70G      -0.020400
     12 C09         -1.3450    -0.9640     0.6640 c3         1 70G      -0.049400
     13 O12         -3.8830    -1.4890    -1.2160 o          1 70G      -0.744000
     14 O13         -3.9480     0.5210    -0.4470 o          1 70G      -0.744000
     15 C16          1.4550     2.6010     0.4880 ca         1 70G      -0.121000
     16 H1          -1.3750    -1.1410    -1.4720 hc         1 70G       0.022200
     17 H2          -1.4300     0.5720    -0.8180 hc         1 70G       0.022200
     18 H5          -0.3420     0.9230     2.7800 hc         1 70G       0.041700
     19 H6          -0.0460     2.6450     2.6270 hc         1 70G       0.041700
     20 H7          -1.2920     1.8970     1.6300 hc         1 70G       0.041700
     21 H8           2.0970    -1.5240    -1.9680 hc         1 70G       0.041700
     22 H9           3.6440    -1.3070    -1.1600 hc         1 70G       0.041700
     23 H10          2.5220    -3.4080    -0.4050 hc         1 70G       0.029200
     24 H11          2.7570    -2.2900     0.9440 hc         1 70G       0.029200
     25 H12          0.1920    -2.6120    -0.7040 hc         1 70G       0.044200
     26 H13          0.4250    -3.2590     0.9070 hc         1 70G       0.044200
     27 H14          0.3520    -1.1820     1.9620 hc         1 70G       0.029700
     28 H15         -1.7970    -0.3300     1.4310 hc         1 70G       0.041700
     29 H16         -1.8000    -1.9480     0.8340 hc         1 70G       0.041700
     30 H18          1.2340     3.5930     0.8760 ha         1 70G       0.098000
     31 H3           3.6030     1.0760    -1.6600 ha         1 70G       0.096000
     32 C01         -0.2940     1.7430     2.0550 c3         1 70G      -0.047800
     33 H4           3.0130     3.3290    -0.8190 ha         1 70G       0.097000
@<TRIPOS>BOND
     1     1     2 1   
     2     1    12 1   
     3     1    16 1   
     4     1    17 1   
     5     2    13 1   
     6     2    14 1   
     7     3     4 ar  
     8     3     7 ar  
     9     3    31 1   
    10     4    15 ar  
    11     4    33 1   
    12     5     6 ar  
    13     5    15 ar  
    14     5    32 1   
    15     6     7 ar  
    16     6    11 1   
    17     7     8 1   
    18     8     9 1   
    19     8    21 1   
    20     8    22 1   
    21     9    10 1   
    22     9    23 1   
    23     9    24 1   
    24    10    11 1   
    25    10    25 1   
    26    10    26 1   
    27    11    12 1   
    28    11    27 1   
    29    12    28 1   
    30    12    29 1   
    31    15    30 1   
    32    18    32 1   
    33    19    32 1   
    34    20    32 1   
@<TRIPOS>SUBSTRUCTURE
     1 70G         1 TEMP              0 ****  ****    0 ROOT
