@<TRIPOS>MOLECULE
70H
   30    31     1     0     0
SMALL
No Charge or Current Charge


@<TRIPOS>ATOM
      1 C10         -1.9970     0.0150    -0.0590 c2         1 70H      -0.083200
      2 C11         -3.3180    -0.7130     0.1100 c3         1 70H      -0.206200
      3 C12         -4.3850    -0.1670    -0.8550 c          1 70H       0.727000
      4 C15          4.0740     0.2060    -0.2080 ca         1 70H      -0.116000
      5 C02          1.8250    -1.5040    -0.1770 ca         1 70H      -0.037300
      6 C03          1.6520    -0.1140     0.1420 ca         1 70H      -0.023000
      7 C04          2.8050     0.7270     0.0990 ca         1 70H      -0.035000
      8 C05          2.7110     2.1060     0.3580 ca         1 70H      -0.140000
      9 C06          1.4780     2.6850     0.6660 ca         1 70H      -0.093000
     10 C07          0.3350     1.8810     0.7320 ca         1 70H      -0.125000
     11 C08          0.4010     0.4960     0.4870 ca         1 70H       0.008200
     12 C09         -0.8820    -0.2370     0.6590 ce         1 70H      -0.283200
     13 O13         -5.0350     0.8050    -0.5000 o          1 70H      -0.729500
     14 O14         -4.4310    -0.6340    -1.9830 o          1 70H      -0.729500
     15 C16          4.2300    -1.1530    -0.4870 ca         1 70H      -0.113000
     16 C17          3.1140    -1.9950    -0.4760 ca         1 70H      -0.144000
     17 H1          -1.9890     0.7860    -0.8330 ha         1 70H       0.163000
     18 H2          -3.1200    -1.7680    -0.1150 hc         1 70H       0.032700
     19 H3          -3.6340    -0.5450     1.1460 hc         1 70H       0.032700
     20 H4           4.9440     0.8570    -0.2310 ha         1 70H       0.100000
     21 H5          -0.1280    -2.1750    -0.8960 hc         1 70H       0.044367
     22 H6           1.0270    -3.4740    -0.6960 hc         1 70H       0.044367
     23 H7           0.2960    -2.7690     0.7350 hc         1 70H       0.044367
     24 H8           3.5970     2.7340     0.3180 ha         1 70H       0.097000
     25 H9           1.4080     3.7520     0.8650 ha         1 70H       0.105000
     26 H10         -0.6160     2.3370     0.9960 ha         1 70H       0.142000
     27 H11         -0.8870    -0.9990     1.4370 ha         1 70H       0.171000
     28 H13          5.2140    -1.5520    -0.7240 ha         1 70H       0.098000
     29 H14          3.2560    -3.0470    -0.7140 ha         1 70H       0.097000
     30 C01          0.6900    -2.5270    -0.2580 c3         1 70H      -0.047800
@<TRIPOS>BOND
     1     1     2 1   
     2     1    12 2   
     3     1    17 1   
     4     2     3 1   
     5     2    18 1   
     6     2    19 1   
     7     3    13 1   
     8     3    14 1   
     9     4     7 ar  
    10     4    15 ar  
    11     4    20 1   
    12     5     6 ar  
    13     5    16 ar  
    14     5    30 1   
    15     6     7 ar  
    16     6    11 ar  
    17     7     8 ar  
    18     8     9 ar  
    19     8    24 1   
    20     9    10 ar  
    21     9    25 1   
    22    10    11 ar  
    23    10    26 1   
    24    11    12 1   
    25    12    27 1   
    26    15    16 ar  
    27    15    28 1   
    28    16    29 1   
    29    21    30 1   
    30    22    30 1   
    31    23    30 1   
@<TRIPOS>SUBSTRUCTURE
     1 70H         1 TEMP              0 ****  ****    0 ROOT
