@<TRIPOS>MOLECULE
70H
   30    31     1     0     0
SMALL
abcg2


@<TRIPOS>ATOM
      1 C10         -1.9930    -0.0770    -0.4700 c2         1 70H      -0.083200
      2 C11         -3.3000    -0.7640    -0.2860 c3         1 70H      -0.206200
      3 C12         -4.4570     0.1920     0.0910 c          1 70H       0.727000
      4 C15          4.1020     0.2370    -0.0020 ca         1 70H      -0.116000
      5 C02          1.9260    -1.5510     0.0650 ca         1 70H      -0.037300
      6 C03          1.6610    -0.1400     0.0770 ca         1 70H      -0.023000
      7 C04          2.7820     0.7450     0.0140 ca         1 70H      -0.035000
      8 C05          2.5940     2.1450    -0.0450 ca         1 70H      -0.140000
      9 C06          1.3390     2.6780    -0.0400 ca         1 70H      -0.093000
     10 C07          0.2290     1.8250     0.0560 ca         1 70H      -0.125000
     11 C08          0.3520     0.4510     0.1170 ca         1 70H       0.008200
     12 C09         -0.9010    -0.3120     0.2580 ce         1 70H      -0.283200
     13 O13         -5.5740    -0.3420     0.2350 o          1 70H      -0.729500
     14 O14         -4.1830     1.4000     0.2170 o          1 70H      -0.729500
     15 C16          4.3270    -1.1070     0.0210 ca         1 70H      -0.113000
     16 C17          3.2320    -1.9860     0.0410 ca         1 70H      -0.144000
     17 H1          -1.9380     0.6540    -1.2720 ha         1 70H       0.163000
     18 H2          -3.5830    -1.2810    -1.2100 hc         1 70H       0.032700
     19 H3          -3.2200    -1.5430     0.4790 hc         1 70H       0.032700
     20 H4           4.9280     0.9380    -0.0380 ha         1 70H       0.100000
     21 H5           0.0900    -2.4250    -0.6940 hc         1 70H       0.044367
     22 H6           1.3060    -3.5820    -0.1640 hc         1 70H       0.044367
     23 H7           0.3560    -2.7030     1.0170 hc         1 70H       0.044367
     24 H8           3.4660     2.7850    -0.0940 ha         1 70H       0.097000
     25 H9           1.1920     3.7490    -0.0830 ha         1 70H       0.105000
     26 H10         -0.7630     2.2540     0.1180 ha         1 70H       0.142000
     27 H11         -0.9500    -1.0610     1.0400 ha         1 70H       0.171000
     28 H13          5.3340    -1.5010     0.0070 ha         1 70H       0.098000
     29 H14          3.4220    -3.0530     0.0280 ha         1 70H       0.097000
     30 C01          0.8590    -2.6120     0.0540 c3         1 70H      -0.047800
@<TRIPOS>BOND
     1     1     2 1   
     2     1    12 2   
     3     1    17 1   
     4     2     3 1   
     5     2    18 1   
     6     2    19 1   
     7     3    13 1   
     8     3    14 1   
     9     4     7 ar  
    10     4    15 ar  
    11     4    20 1   
    12     5     6 ar  
    13     5    16 ar  
    14     5    30 1   
    15     6     7 ar  
    16     6    11 ar  
    17     7     8 ar  
    18     8     9 ar  
    19     8    24 1   
    20     9    10 ar  
    21     9    25 1   
    22    10    11 ar  
    23    10    26 1   
    24    11    12 1   
    25    12    27 1   
    26    15    16 ar  
    27    15    28 1   
    28    16    29 1   
    29    21    30 1   
    30    22    30 1   
    31    23    30 1   
@<TRIPOS>SUBSTRUCTURE
     1 70H         1 TEMP              0 ****  ****    0 ROOT
