@<TRIPOS>MOLECULE
70I
   73    79     1     0     0
SMALL
No Charge or Current Charge


@<TRIPOS>ATOM
      1 C2          15.2420   -18.2450   -16.3570 cy         1 70I       0.167300
      2 C3          14.9470   -16.7370   -16.0410 cy         1 70I       0.115800
      3 C5          14.5680   -18.4920   -14.9630 cy         1 70I       0.115800
      4 C7          12.2940   -15.2930   -14.6440 c3         1 70I      -0.067400
      5 C8          13.0730   -14.0820   -15.2230 c3         1 70I      -0.158400
      6 C12         12.2560   -12.2110   -12.9620 c6         1 70I       0.076500
      7 C15         11.5950    -9.4440   -13.6830 c6         1 70I       0.206800
      8 C16         11.3070   -10.6280   -14.6450 c6         1 70I       0.076500
      9 C17         11.2360    -8.9760   -11.1990 ca         1 70I       0.403900
     10 C19         10.3070    -6.9410   -10.5690 ca         1 70I      -0.041000
     11 C21         11.1050    -8.5350    -8.9460 ca         1 70I       0.190900
     12 N22         11.4630    -9.3790    -9.9320 nb         1 70I      -0.219000
     13 C24          9.6130    -5.2610    -8.5790 ca         1 70I       0.147900
     14 C30          7.1050    -2.4450   -12.7380 ca         1 70I       0.146000
     15 C32          7.5300    -2.0060   -14.0180 ca         1 70I       0.055100
     16 C34          5.6310    -1.2360   -14.9920 cc         1 70I       0.168100
     17 C35          4.5580    -0.3990   -14.5170 cc         1 70I      -0.169000
     18 C36          3.2220    -0.6430   -14.8310 cd         1 70I      -0.046000
     19 C39          2.1700    -3.1870   -16.8290 cc         1 70I       0.535200
     20 F1          14.6140   -18.7800   -17.4490 f          1 70I      -0.246000
     21 N4          13.7840   -17.2480   -15.2460 nq         1 70I      -0.703600
     22 C9          12.1570   -12.8600   -15.4090 c          1 70I       0.609100
     23 O10         11.5120   -12.7340   -16.4430 o          1 70I      -0.595100
     24 N11         12.1290   -11.8550   -14.4120 n          1 70I      -0.419800
     25 C13         12.5360   -11.0130   -12.0130 c6         1 70I       0.206800
     26 N14         11.6020    -9.8680   -12.2480 nh         1 70I      -0.771300
     27 N18         10.6730    -7.7990   -11.5530 nb         1 70I      -0.268000
     28 C20         10.5160    -7.2840    -9.2090 ca         1 70I      -0.114000
     29 N23         10.1640    -6.4380    -8.2170 nb         1 70I      -0.156000
     30 N25          9.3730    -4.8390    -9.8350 nb         1 70I      -0.252000
     31 C26          9.7080    -5.6810   -10.8300 ca         1 70I       0.391900
     32 N27          9.4920    -5.2540   -12.1450 nu         1 70I      -0.917900
     33 C28          8.8360    -4.1690   -12.7330 ca         1 70I       0.337000
     34 C29          7.7520    -3.5250   -12.1150 ca         1 70I      -0.145500
     35 O33          6.9380    -0.9420   -14.6850 os         1 70I      -0.214200
     36 N37          3.0160    -1.7580   -15.6510 na         1 70I       0.272400
     37 N38          1.7910    -2.1480   -16.0840 nd         1 70I      -0.601100
     38 N40          3.5180    -3.4670   -16.9030 nc         1 70I      -0.406300
     39 C41          4.0380    -2.5350   -16.1410 cd         1 70I      -0.031000
     40 C42          5.4120    -2.3060   -15.8360 cd         1 70I      -0.185000
     41 C43          8.6290    -2.6490   -14.6250 ca         1 70I       0.146000
     42 Cl44         9.2170    -2.1240   -16.2020 cl         1 70I      -0.158500
     43 C45          9.2640    -3.7290   -13.9930 ca         1 70I      -0.145500
     44 H1          16.3070   -18.4960   -16.3920 h1         1 70I       0.068700
     45 H2          15.7360   -16.2540   -15.4510 h1         1 70I       0.059950
     46 H3          14.7080   -16.1320   -16.9220 h1         1 70I       0.059950
     47 H4          13.9920   -19.4210   -14.8900 h1         1 70I       0.059950
     48 H5          15.2700   -18.4160   -14.1230 h1         1 70I       0.059950
     49 H6          12.5310   -17.1530   -13.5840 h1         1 70I       0.031200
     50 H7          13.9550   -16.1040   -13.4820 h1         1 70I       0.031200
     51 H8          11.5750   -15.6580   -15.3880 hc         1 70I       0.055700
     52 H9          11.7010   -14.9530   -13.7870 hc         1 70I       0.055700
     53 H10         13.8900   -13.8400   -14.5370 hc         1 70I       0.065200
     54 H11         13.4790   -14.3580   -16.2000 hc         1 70I       0.065200
     55 H12         11.3180   -12.6860   -12.6440 h1         1 70I       0.065200
     56 H13         13.0530   -12.9480   -12.8050 h1         1 70I       0.065200
     57 H14         12.5690    -9.0060   -13.9450 h1         1 70I       0.070700
     58 H15         10.8340    -8.6750   -13.8800 h1         1 70I       0.070700
     59 H16         11.4560   -10.2750   -15.6760 h1         1 70I       0.065200
     60 H17         10.2460   -10.9010   -14.5500 h1         1 70I       0.065200
     61 H18         11.2960    -8.8680    -7.9270 h4         1 70I       0.046100
     62 H19          9.3370    -4.5830    -7.7730 h5         1 70I       0.055100
     63 H20          4.8180     0.4460   -13.8880 ha         1 70I       0.152000
     64 H21          2.3640    -0.0670   -14.5100 h4         1 70I       0.166000
     65 H22          1.4810    -3.8170   -17.3790 h5         1 70I       0.070800
     66 H24         12.4720   -11.3930   -10.9840 h1         1 70I       0.070700
     67 H25         13.5740   -10.6800   -12.1650 h1         1 70I       0.070700
     68 H26          9.9730    -5.8580   -12.8120 hn         1 70I       0.530000
     69 H27          7.3940    -3.8600   -11.1490 ha         1 70I       0.156500
     70 H28          6.2080    -2.9210   -16.2390 ha         1 70I       0.159000
     71 H29         10.1020    -4.2150   -14.4830 ha         1 70I       0.156500
     72 C6          13.1720   -16.4720   -14.1590 c3         1 70I       0.169800
     73 Cl31         5.8090    -1.6490   -11.8430 cl         1 70I      -0.158500
@<TRIPOS>BOND
     1     1     2 1   
     2     1     3 1   
     3     1    20 1   
     4     1    44 1   
     5     2    21 1   
     6     2    45 1   
     7     2    46 1   
     8     3    21 1   
     9     3    47 1   
    10     3    48 1   
    11     4     5 1   
    12     4    51 1   
    13     4    52 1   
    14     4    72 1   
    15     5    22 1   
    16     5    53 1   
    17     5    54 1   
    18     6    24 1   
    19     6    25 1   
    20     6    55 1   
    21     6    56 1   
    22     7     8 1   
    23     7    26 1   
    24     7    57 1   
    25     7    58 1   
    26     8    24 1   
    27     8    59 1   
    28     8    60 1   
    29     9    12 ar  
    30     9    26 1   
    31     9    27 ar  
    32    10    27 ar  
    33    10    28 ar  
    34    10    31 ar  
    35    11    12 ar  
    36    11    28 ar  
    37    11    61 1   
    38    13    29 ar  
    39    13    30 ar  
    40    13    62 1   
    41    14    15 ar  
    42    14    34 ar  
    43    14    73 1   
    44    15    35 1   
    45    15    41 ar  
    46    16    17 1   
    47    16    35 1   
    48    16    40 2   
    49    17    18 2   
    50    17    63 1   
    51    18    36 1   
    52    18    64 1   
    53    19    37 2   
    54    19    38 1   
    55    19    65 1   
    56    21    72 1   
    57    22    23 2   
    58    22    24 1   
    59    25    26 1   
    60    25    66 1   
    61    25    67 1   
    62    28    29 ar  
    63    30    31 ar  
    64    31    32 1   
    65    32    33 1   
    66    32    68 1   
    67    33    34 ar  
    68    33    43 ar  
    69    34    69 1   
    70    36    37 1   
    71    36    39 1   
    72    38    39 2   
    73    39    40 1   
    74    40    70 1   
    75    41    42 1   
    76    41    43 ar  
    77    43    71 1   
    78    49    72 1   
    79    50    72 1   
@<TRIPOS>SUBSTRUCTURE
     1 70I         1 TEMP              0 ****  ****    0 ROOT
