@<TRIPOS>MOLECULE
70I
   73    79     1     0     0
SMALL
bcc


@<TRIPOS>ATOM
      1 C2          15.4250   -17.8090   -16.2230 cy         1 70I       0.148600
      2 C3          15.0240   -16.3720   -15.9090 cy         1 70I       0.115800
      3 C5          14.2090   -18.2200   -15.3990 cy         1 70I       0.115800
      4 C7          12.2960   -15.0020   -14.6110 c3         1 70I      -0.067400
      5 C8          13.2010   -13.8190   -14.9690 c3         1 70I      -0.158400
      6 C12         12.1600   -12.1390   -12.7990 c6         1 70I       0.076500
      7 C15         11.8290    -9.4450   -13.7060 c6         1 70I       0.206800
      8 C16         11.1760   -10.6270   -14.4090 c6         1 70I       0.076500
      9 C17         11.5000    -9.0150   -11.3120 ca         1 70I       0.929900
     10 C19         10.2980    -7.2330   -10.6010 ca         1 70I       0.222000
     11 C21         11.1840    -8.7830    -9.0620 ca         1 70I       0.453900
     12 N22         11.7040    -9.4580   -10.0410 nb         1 70I      -0.745000
     13 C24          9.2180    -5.8430    -8.5880 ca         1 70I       0.673900
     14 C30          7.4880    -2.5270   -12.6090 ca         1 70I       0.054400
     15 C32          7.5560    -2.3900   -13.9870 ca         1 70I       0.055100
     16 C34          5.7060    -1.4420   -15.0540 cc         1 70I       0.168100
     17 C35          5.1930    -0.2790   -15.6810 cc         1 70I      -0.187000
     18 C36          3.9280    -0.2790   -16.1680 cd         1 70I      -0.013300
     19 C39          1.6810    -2.8180   -16.0940 cc         1 70I       0.535200
     20 F1          15.2840   -18.1150   -17.5710 f          1 70I      -0.227300
     21 N4          13.6930   -16.8510   -15.5080 nq         1 70I      -0.703600
     22 C9          12.4030   -12.5610   -15.2530 c          1 70I       0.676100
     23 O10         12.1550   -12.2420   -16.4090 o          1 70I      -0.595100
     24 N11         11.9540   -11.8350   -14.2010 n          1 70I      -0.486800
     25 C13         12.8050   -10.9590   -12.0840 c6         1 70I       0.206800
     26 N14         12.0360    -9.7510   -12.3050 nh         1 70I      -0.771300
     27 N18         10.8240    -7.9180   -11.6170 nb         1 70I      -0.794000
     28 C20         10.4240    -7.6060    -9.2680 ca         1 70I       0.149000
     29 N23          9.8780    -6.9080    -8.2430 nb         1 70I      -0.682000
     30 N25          9.0280    -5.3640    -9.8360 nb         1 70I      -0.778000
     31 C26          9.5490    -6.0240   -10.8390 ca         1 70I       0.654900
     32 N27          9.4300    -5.6340   -12.1260 nu         1 70I      -0.724300
     33 C28          8.7910    -4.5380   -12.6840 ca         1 70I       0.198600
     34 C29          8.0970    -3.5790   -11.9450 ca         1 70I      -0.163500
     35 O33          6.9830    -1.3270   -14.6120 os         1 70I      -0.214200
     36 N37          3.1830    -1.4020   -16.0380 na         1 70I       0.171000
     37 N38          1.9210    -1.5770   -16.4600 nd         1 70I      -0.601100
     38 N40          2.6830    -3.4580   -15.4710 nc         1 70I      -0.406300
     39 C41          3.6420    -2.5430   -15.4390 cd         1 70I       0.019700
     40 C42          4.9500    -2.5740   -14.9230 cd         1 70I      -0.203000
     41 C43          8.2500    -3.3540   -14.7080 ca         1 70I       0.054400
     42 CL44         8.3380    -3.2040   -16.4190 cl         1 70I      -0.066900
     43 C45          8.8650    -4.4140   -14.0750 ca         1 70I      -0.163500
     44 H1          16.4050   -18.1530   -15.9000 h1         1 70I       0.068700
     45 H2          15.6130   -15.9660   -15.0760 h1         1 70I       0.059950
     46 H3          15.0520   -15.6610   -16.7390 h1         1 70I       0.059950
     47 H4          13.5650   -19.0040   -15.8050 h1         1 70I       0.059950
     48 H5          14.5050   -18.4990   -14.3800 h1         1 70I       0.059950
     49 H6          12.3320   -17.0360   -13.9850 h1         1 70I       0.031200
     50 H7          13.7720   -16.1390   -13.5190 h1         1 70I       0.031200
     51 H8          11.5800   -15.1700   -15.4190 hc         1 70I       0.055700
     52 H9          11.7090   -14.7660   -13.7200 hc         1 70I       0.055700
     53 H10         13.9460   -13.6650   -14.1860 hc         1 70I       0.065200
     54 H11         13.7480   -14.0350   -15.8850 hc         1 70I       0.065200
     55 H12         11.1950   -12.3630   -12.3320 h1         1 70I       0.065200
     56 H13         12.7940   -13.0100   -12.6710 h1         1 70I       0.065200
     57 H14         12.7950    -9.2270   -14.1720 h1         1 70I       0.070700
     58 H15         11.2010    -8.5640   -13.8060 h1         1 70I       0.070700
     59 H16         11.0950   -10.4210   -15.4720 h1         1 70I       0.065200
     60 H17         10.1650   -10.7720   -14.0140 h1         1 70I       0.065200
     61 H18         11.3480    -9.1450    -8.0510 h4         1 70I       0.046100
     62 H19          8.7630    -5.2580    -7.7970 h5         1 70I       0.055100
     63 H20          5.8030     0.6080   -15.7740 ha         1 70I       0.170000
     64 H21          3.4660     0.5650   -16.6580 h4         1 70I       0.184000
     65 H22          0.7240    -3.2790   -16.2930 h5         1 70I       0.070800
     66 H24         12.8770   -11.1690   -11.0220 h1         1 70I       0.070700
     67 H25         13.8190   -10.8120   -12.4720 h1         1 70I       0.070700
     68 H26          9.8950    -6.2570   -12.7760 hn         1 70I       0.474800
     69 H27          8.0260    -3.6520   -10.8730 ha         1 70I       0.174500
     70 H28          5.3030    -3.4800   -14.4510 ha         1 70I       0.177000
     71 H29          9.3990    -5.1490   -14.6630 ha         1 70I       0.174500
     72 C6          13.0520   -16.2950   -14.3410 c3         1 70I       0.169800
     73 CL31         6.6220    -1.3450   -11.7070 cl         1 70I      -0.066900
@<TRIPOS>BOND
     1     1     2 1   
     2     1     3 1   
     3     1    20 1   
     4     1    44 1   
     5     2    21 1   
     6     2    45 1   
     7     2    46 1   
     8     3    21 1   
     9     3    47 1   
    10     3    48 1   
    11     4     5 1   
    12     4    51 1   
    13     4    52 1   
    14     4    72 1   
    15     5    22 1   
    16     5    53 1   
    17     5    54 1   
    18     6    24 1   
    19     6    25 1   
    20     6    55 1   
    21     6    56 1   
    22     7     8 1   
    23     7    26 1   
    24     7    57 1   
    25     7    58 1   
    26     8    24 1   
    27     8    59 1   
    28     8    60 1   
    29     9    12 ar  
    30     9    26 1   
    31     9    27 ar  
    32    10    27 ar  
    33    10    28 ar  
    34    10    31 ar  
    35    11    12 ar  
    36    11    28 ar  
    37    11    61 1   
    38    13    29 ar  
    39    13    30 ar  
    40    13    62 1   
    41    14    15 ar  
    42    14    34 ar  
    43    14    73 1   
    44    15    35 1   
    45    15    41 ar  
    46    16    17 1   
    47    16    35 1   
    48    16    40 2   
    49    17    18 2   
    50    17    63 1   
    51    18    36 1   
    52    18    64 1   
    53    19    37 2   
    54    19    38 1   
    55    19    65 1   
    56    21    72 1   
    57    22    23 2   
    58    22    24 1   
    59    25    26 1   
    60    25    66 1   
    61    25    67 1   
    62    28    29 ar  
    63    30    31 ar  
    64    31    32 1   
    65    32    33 1   
    66    32    68 1   
    67    33    34 ar  
    68    33    43 ar  
    69    34    69 1   
    70    36    37 1   
    71    36    39 1   
    72    38    39 2   
    73    39    40 1   
    74    40    70 1   
    75    41    42 1   
    76    41    43 ar  
    77    43    71 1   
    78    49    72 1   
    79    50    72 1   
@<TRIPOS>SUBSTRUCTURE
     1 70I         1 TEMP              0 ****  ****    0 ROOT
