@<TRIPOS>MOLECULE
70K
   63    67     1     0     0
SMALL
No Charge or Current Charge


@<TRIPOS>ATOM
      1 C1          -0.1200     2.2790    -0.4640 c          1 70K       0.624700
      2 C7          -2.2400     3.3330    -1.4010 ca         1 70K       0.185100
      3 C9          -4.4150     2.3330    -1.0390 ca         1 70K      -0.026000
      4 C10         -3.8120     1.2730    -0.4090 ca         1 70K      -0.159000
      5 C11         -4.8840     0.3980    -0.0140 cc         1 70K      -0.158300
      6 C14         -4.8250    -0.9210     0.6770 c          1 70K       0.632300
      7 C16          1.6690     0.7600     0.4330 ca         1 70K      -0.096000
      8 C19          3.9210     0.2070     1.2210 ca         1 70K      -0.160000
      9 C20          3.2600    -0.4010    -1.0240 ca         1 70K      -0.160000
     10 C21          2.6670     0.8070     1.4320 ca         1 70K      -0.066000
     11 N23          5.4980    -1.0120    -0.1960 nh         1 70K      -0.791400
     12 C24          6.7540    -0.2300     0.0630 c6         1 70K       0.161800
     13 C27          6.9570    -2.9820    -0.8650 c6         1 70K       0.147100
     14 C31         -2.8960    -1.8010    -0.7330 c6         1 70K       0.088500
     15 C32         -3.1440    -3.1630    -1.4260 c6         1 70K      -0.103400
     16 C33         -2.8340    -4.3420    -0.4750 c6         1 70K      -0.075400
     17 C34         -3.6270    -4.1920     0.8430 c6         1 70K      -0.103400
     18 N2           0.4270     1.4880     0.5770 n          1 70K      -0.223400
     19 O3           0.6060     2.8730    -1.2580 o          1 70K      -0.621100
     20 C4          -1.6200     2.2890    -0.6650 ca         1 70K      -0.227600
     21 C5          -2.4290     1.2390    -0.1640 ca         1 70K       0.007000
     22 C6          -3.6370     3.3700    -1.5650 ca         1 70K      -0.152000
     23 N12         -6.0530     1.0690    -0.3610 na         1 70K       0.058500
     24 N13         -5.8070     2.2620    -1.0520 nc         1 70K      -0.273400
     25 O15         -5.7840    -1.3390     1.3150 o          1 70K      -0.597100
     26 C17          2.0070     0.1990    -0.8170 ca         1 70K      -0.066000
     27 C18          4.2300    -0.4110    -0.0040 ca         1 70K       0.308000
     28 C25          7.9840    -1.1530     0.3120 c6         1 70K       0.147100
     29 O26          8.1200    -2.1300    -0.7470 os         1 70K      -0.444000
     30 C28          5.6810    -2.1400    -1.1680 c6         1 70K       0.161800
     31 C29         -3.3590    -2.8130     1.4910 c6         1 70K       0.088500
     32 N30         -3.6470    -1.6950     0.5530 n          1 70K      -0.385800
     33 H1           4.6560     0.2220     2.0190 ha         1 70K       0.116500
     34 H2           3.4790    -0.8400    -1.9920 ha         1 70K       0.116500
     35 H3           2.4840     1.2970     2.3840 ha         1 70K       0.118000
     36 H4          -0.1860     0.6900     2.4450 h1         1 70K       0.046367
     37 H5           0.5170     2.3330     2.5210 h1         1 70K       0.046367
     38 H6          -1.1310     2.1090     1.9150 h1         1 70K       0.046367
     39 H7           6.9700     0.4190    -0.7990 h1         1 70K       0.048950
     40 H8           6.6350     0.4270     0.9360 h1         1 70K       0.048950
     41 H9           7.1230    -3.7110    -1.6710 h1         1 70K       0.053700
     42 H10          6.8210    -3.5390     0.0740 h1         1 70K       0.053700
     43 H11         -1.8200    -1.6880    -0.5330 h1         1 70K       0.061950
     44 H12         -3.1900    -1.0070    -1.4320 h1         1 70K       0.061950
     45 H13         -4.1910    -3.2190    -1.7540 hc         1 70K       0.052950
     46 H14         -2.5280    -3.2380    -2.3320 hc         1 70K       0.052950
     47 H15         -3.0850    -5.2950    -0.9610 hc         1 70K       0.044200
     48 H16         -1.7560    -4.3720    -0.2600 hc         1 70K       0.044200
     49 H17         -4.7020    -4.3010     0.6450 hc         1 70K       0.052950
     50 H18         -3.3520    -4.9930     1.5420 hc         1 70K       0.052950
     51 H19         -1.9930     0.4220     0.4030 ha         1 70K       0.122000
     52 H20         -4.1060     4.2000    -2.0870 ha         1 70K       0.147000
     53 H21         -0.5470     4.0480    -1.8510 ho         1 70K       0.507000
     54 H22         -7.0030     0.7470    -0.1940 hn         1 70K       0.388000
     55 H23          1.2870     0.2070    -1.6330 ha         1 70K       0.118000
     56 H24          8.9000    -0.5480     0.3640 h1         1 70K       0.053700
     57 H25          7.8690    -1.6760     1.2730 h1         1 70K       0.053700
     58 H26          4.8100    -2.8120    -1.1390 h1         1 70K       0.048950
     59 H27          5.7550    -1.7450    -2.1920 h1         1 70K       0.048950
     60 H28         -3.9600    -2.7100     2.4060 h1         1 70K       0.061950
     61 H29         -2.3040    -2.7530     1.7950 h1         1 70K       0.061950
     62 O8          -1.4920     4.3340    -1.9420 oh         1 70K      -0.549100
     63 C22         -0.1300     1.6630     1.9420 c3         1 70K       0.096300
@<TRIPOS>BOND
     1     1    18 1   
     2     1    19 2   
     3     1    20 1   
     4     2    20 ar  
     5     2    22 ar  
     6     2    62 1   
     7     3     4 ar  
     8     3    22 ar  
     9     3    24 2   
    10     4     5 2   
    11     4    21 ar  
    12     5     6 1   
    13     5    23 1   
    14     6    25 2   
    15     6    32 1   
    16     7    10 ar  
    17     7    18 1   
    18     7    26 ar  
    19     8    10 ar  
    20     8    27 ar  
    21     8    33 1   
    22     9    26 ar  
    23     9    27 ar  
    24     9    34 1   
    25    10    35 1   
    26    11    12 1   
    27    11    27 1   
    28    11    30 1   
    29    12    28 1   
    30    12    39 1   
    31    12    40 1   
    32    13    29 1   
    33    13    30 1   
    34    13    41 1   
    35    13    42 1   
    36    14    15 1   
    37    14    32 1   
    38    14    43 1   
    39    14    44 1   
    40    15    16 1   
    41    15    45 1   
    42    15    46 1   
    43    16    17 1   
    44    16    47 1   
    45    16    48 1   
    46    17    31 1   
    47    17    49 1   
    48    17    50 1   
    49    18    63 1   
    50    20    21 ar  
    51    21    51 1   
    52    22    52 1   
    53    23    24 1   
    54    23    54 1   
    55    26    55 1   
    56    28    29 1   
    57    28    56 1   
    58    28    57 1   
    59    30    58 1   
    60    30    59 1   
    61    31    32 1   
    62    31    60 1   
    63    31    61 1   
    64    36    63 1   
    65    37    63 1   
    66    38    63 1   
    67    53    62 1   
@<TRIPOS>SUBSTRUCTURE
     1 70K         1 TEMP              0 ****  ****    0 ROOT
