@<TRIPOS>MOLECULE
70K
   63    67     1     0     0
SMALL
abcg2


@<TRIPOS>ATOM
      1 C1           0.1640     1.5920    -0.5160 c          1 70K       0.624700
      2 C7          -1.7830     3.0860    -1.0420 ca         1 70K       0.185100
      3 C9          -4.0250     2.3970    -0.6100 ca         1 70K      -0.026000
      4 C10         -3.5620     1.1320    -0.1590 ca         1 70K      -0.159000
      5 C11         -4.7290     0.4370     0.1790 cc         1 70K      -0.158300
      6 C14         -5.0110    -0.8570     0.8480 c          1 70K       0.632300
      7 C16          2.1110     0.5330     0.3240 ca         1 70K      -0.096000
      8 C19          4.4470     0.9670     0.7130 ca         1 70K      -0.160000
      9 C20          3.7830    -1.0050    -0.4770 ca         1 70K      -0.160000
     10 C21          3.1220     1.3330     0.8420 ca         1 70K      -0.066000
     11 N23          6.1510    -0.5840    -0.0390 nh         1 70K      -0.791400
     12 C24          7.1190     0.4420    -0.4070 c6         1 70K       0.161800
     13 C27          7.9130    -2.2380    -0.2850 c6         1 70K       0.147100
     14 C31         -3.6440    -2.0950    -0.8110 c6         1 70K       0.088500
     15 C32         -4.4810    -3.0460    -1.6610 c6         1 70K      -0.103400
     16 C33         -4.7210    -4.3710    -0.9460 c6         1 70K      -0.075400
     17 C34         -5.2950    -4.1390     0.4480 c6         1 70K      -0.103400
     18 N2           0.7420     0.8990     0.4840 n          1 70K      -0.223400
     19 O3           0.8320     2.0290    -1.4580 o          1 70K      -0.621100
     20 C4          -1.3030     1.8370    -0.4990 ca         1 70K      -0.227600
     21 C5          -2.1860     0.8680    -0.0960 ca         1 70K       0.007000
     22 C6          -3.1210     3.3760    -1.0680 ca         1 70K      -0.152000
     23 N12         -5.7220     1.2960    -0.0630 na         1 70K       0.058500
     24 N13         -5.3570     2.4690    -0.5470 nc         1 70K      -0.273400
     25 O15         -5.8750    -0.8840     1.7150 o          1 70K      -0.597100
     26 C17          2.4530    -0.6370    -0.3310 ca         1 70K      -0.066000
     27 C18          4.8140    -0.2150     0.0480 ca         1 70K       0.308000
     28 C25          8.5230    -0.0170    -0.0710 c6         1 70K       0.147100
     29 O26          8.8280    -1.2460    -0.6890 os         1 70K      -0.444000
     30 C28          6.4810    -1.8670    -0.6270 c6         1 70K       0.161800
     31 C29         -4.4180    -3.1690     1.2280 c6         1 70K       0.088500
     32 N30         -4.2530    -1.9150     0.5020 n          1 70K      -0.385800
     33 H1           5.2010     1.6050     1.1540 ha         1 70K       0.116500
     34 H2           4.0030    -1.9130    -1.0200 ha         1 70K       0.116500
     35 H3           2.8710     2.2490     1.3640 ha         1 70K       0.118000
     36 H4          -0.1870    -0.4130     1.8670 h1         1 70K       0.046367
     37 H5           0.9100     0.7850     2.5510 h1         1 70K       0.046367
     38 H6          -0.6780     1.2880     1.9940 h1         1 70K       0.046367
     39 H7           7.0490     0.6710    -1.4810 h1         1 70K       0.048950
     40 H8           6.9260     1.3660     0.1330 h1         1 70K       0.048950
     41 H9           8.1830    -3.1630    -0.7950 h1         1 70K       0.053700
     42 H10          7.9890    -2.4120     0.7970 h1         1 70K       0.053700
     43 H11         -2.6390    -2.5030    -0.6680 h1         1 70K       0.061950
     44 H12         -3.5370    -1.1410    -1.3190 h1         1 70K       0.061950
     45 H13         -5.4370    -2.5650    -1.8910 hc         1 70K       0.052950
     46 H14         -3.9690    -3.2070    -2.6120 hc         1 70K       0.052950
     47 H15         -5.3910    -5.0010    -1.5350 hc         1 70K       0.044200
     48 H16         -3.7740    -4.9150    -0.8630 hc         1 70K       0.044200
     49 H17         -6.3080    -3.7310     0.3750 hc         1 70K       0.052950
     50 H18         -5.3680    -5.0790     0.9980 hc         1 70K       0.052950
     51 H19         -1.8310    -0.0900     0.2610 ha         1 70K       0.122000
     52 H20         -3.4710     4.3240    -1.4570 ha         1 70K       0.147000
     53 H21         -0.0670     3.5500    -1.6790 ho         1 70K       0.507000
     54 H22         -6.7050     1.1120     0.0890 hn         1 70K       0.388000
     55 H23          1.6770    -1.2680    -0.7460 ha         1 70K       0.118000
     56 H24          9.2450     0.7200    -0.4260 h1         1 70K       0.053700
     57 H25          8.6270    -0.0990     1.0200 h1         1 70K       0.053700
     58 H26          5.8320    -2.6430    -0.2170 h1         1 70K       0.048950
     59 H27          6.3440    -1.8640    -1.7190 h1         1 70K       0.048950
     60 H28         -4.8230    -2.9690     2.2160 h1         1 70K       0.061950
     61 H29         -3.4210    -3.5970     1.3640 h1         1 70K       0.061950
     62 O8          -0.9180     3.9990    -1.5080 oh         1 70K      -0.549100
     63 C22          0.1530     0.6200     1.7860 c3         1 70K       0.096300
@<TRIPOS>BOND
     1     1    18 1   
     2     1    19 2   
     3     1    20 1   
     4     2    20 ar  
     5     2    22 ar  
     6     2    62 1   
     7     3     4 ar  
     8     3    22 ar  
     9     3    24 2   
    10     4     5 2   
    11     4    21 ar  
    12     5     6 1   
    13     5    23 1   
    14     6    25 2   
    15     6    32 1   
    16     7    10 ar  
    17     7    18 1   
    18     7    26 ar  
    19     8    10 ar  
    20     8    27 ar  
    21     8    33 1   
    22     9    26 ar  
    23     9    27 ar  
    24     9    34 1   
    25    10    35 1   
    26    11    12 1   
    27    11    27 1   
    28    11    30 1   
    29    12    28 1   
    30    12    39 1   
    31    12    40 1   
    32    13    29 1   
    33    13    30 1   
    34    13    41 1   
    35    13    42 1   
    36    14    15 1   
    37    14    32 1   
    38    14    43 1   
    39    14    44 1   
    40    15    16 1   
    41    15    45 1   
    42    15    46 1   
    43    16    17 1   
    44    16    47 1   
    45    16    48 1   
    46    17    31 1   
    47    17    49 1   
    48    17    50 1   
    49    18    63 1   
    50    20    21 ar  
    51    21    51 1   
    52    22    52 1   
    53    23    24 1   
    54    23    54 1   
    55    26    55 1   
    56    28    29 1   
    57    28    56 1   
    58    28    57 1   
    59    30    58 1   
    60    30    59 1   
    61    31    32 1   
    62    31    60 1   
    63    31    61 1   
    64    36    63 1   
    65    37    63 1   
    66    38    63 1   
    67    53    62 1   
@<TRIPOS>SUBSTRUCTURE
     1 70K         1 TEMP              0 ****  ****    0 ROOT
