@<TRIPOS>MOLECULE
70L
   56    60     1     0     0
SMALL
No Charge or Current Charge


@<TRIPOS>ATOM
      1 C1           0.3780    -1.2800     0.4640 ca         1 70L      -0.167000
      2 C2          -1.5920     0.2470     1.1790 c          1 70L       0.509600
      3 O4          -1.0050     1.1670     1.7400 o          1 70L      -0.576100
      4 C7           1.1540    -0.1920     0.0020 ca         1 70L      -0.026000
      5 C9           2.1990    -2.7910    -0.1170 ca         1 70L      -0.115000
      6 C11          2.4480    -0.4020    -0.5090 ca         1 70L      -0.096300
      7 C12          2.9690    -1.7060    -0.5620 ca         1 70L      -0.066000
      8 C13         -1.0520    -3.3920     1.2770 ca         1 70L       0.377900
      9 C15         -3.5840    -0.4790    -0.2440 c5         1 70L       0.152300
     10 C16         -3.6530     1.7140     0.9760 c5         1 70L       0.152300
     11 C19         -5.7050     0.0590    -1.6550 ca         1 70L      -0.088500
     12 C20         -6.7230     0.9920    -1.9350 ca         1 70L      -0.106000
     13 C21         -6.7630     2.2240    -1.2470 ca         1 70L      -0.106000
     14 C22         -5.7870     2.5250    -0.2770 ca         1 70L      -0.088500
     15 C27          5.7710    -0.0230     3.0680 c3         1 70L      -0.111100
     16 C30          2.6900     1.9500    -1.8790 cy         1 70L      -0.075900
     17 C31          4.0910     2.0810    -2.5870 cy         1 70L      -0.093400
     18 N3          -2.9360     0.4110     0.7770 n          1 70L      -0.401800
     19 C5          -0.9400    -1.1180     0.9820 ca         1 70L       0.143500
     20 C6           0.9030    -2.5950     0.3930 ca         1 70L       0.081000
     21 N8          -1.6440    -2.1990     1.3950 nb         1 70L      -0.218000
     22 N10          0.1730    -3.6500     0.8060 nb         1 70L      -0.250000
     23 N14         -1.7710    -4.4650     1.6910 nv         1 70L      -1.059900
     24 C17         -4.7810     1.5810    -0.0120 ca         1 70L      -0.101800
     25 C18         -4.7410     0.3780    -0.6860 ca         1 70L      -0.101800
     26 C23          4.0060     1.6630     0.1500 c          1 70L       0.616100
     27 N24          4.5760     0.7970     1.0600 ns         1 70L      -0.510900
     28 O25          4.1140     2.8670     0.3630 o          1 70L      -0.591100
     29 C26          5.3150     1.1990     2.2560 c3         1 70L       0.106000
     30 C28          3.2750     0.7900    -0.9870 cy         1 70L      -0.108700
     31 C29          4.5060     0.6940    -1.9700 cy         1 70L      -0.075900
     32 H1           0.7670     0.8230     0.0250 ha         1 70L       0.141000
     33 H2           2.6110    -3.7970    -0.1700 ha         1 70L       0.133000
     34 H3           3.9690    -1.8870    -0.9510 ha         1 70L       0.110000
     35 H4          -2.9100    -0.7040    -1.0810 h1         1 70L       0.067950
     36 H5          -3.9390    -1.4190     0.1970 h1         1 70L       0.067950
     37 H6          -4.0250     1.8190     2.0030 h1         1 70L       0.067950
     38 H7          -3.0150     2.5760     0.7360 h1         1 70L       0.067950
     39 H8          -5.6680    -0.8920    -2.1820 ha         1 70L       0.119000
     40 H9          -7.4780     0.7630    -2.6830 ha         1 70L       0.115000
     41 H10         -7.5510     2.9420    -1.4650 ha         1 70L       0.115000
     42 H11         -5.8120     3.4730     0.2560 ha         1 70L       0.119000
     43 H12          6.3210     0.2980     3.9600 hc         1 70L       0.040700
     44 H13          4.9070    -0.6170     3.3920 hc         1 70L       0.040700
     45 H14          6.4300    -0.6620     2.4690 hc         1 70L       0.040700
     46 H15          2.3050     2.8440    -1.3760 hc         1 70L       0.059450
     47 H16          1.9020     1.6050    -2.5590 hc         1 70L       0.059450
     48 H17          4.0580     2.1130    -3.6810 hc         1 70L       0.054700
     49 H18          4.6970     2.9280    -2.2470 hc         1 70L       0.054700
     50 H19         -2.6000    -4.3070     2.2580 hn         1 70L       0.495500
     51 H20         -1.2910    -5.3530     1.8210 hn         1 70L       0.495500
     52 H21          4.4440    -0.1900     0.8810 hn         1 70L       0.312500
     53 H22          4.6700     1.8330     2.8780 h1         1 70L       0.051200
     54 H23          6.1920     1.7870     1.9530 h1         1 70L       0.051200
     55 H24          4.4220    -0.1300    -2.6880 hc         1 70L       0.059450
     56 H25          5.5100     0.6440    -1.5330 hc         1 70L       0.059450
@<TRIPOS>BOND
     1     1     4 ar  
     2     1    19 ar  
     3     1    20 ar  
     4     2     3 2   
     5     2    18 1   
     6     2    19 1   
     7     4     6 ar  
     8     4    32 1   
     9     5     7 ar  
    10     5    20 ar  
    11     5    33 1   
    12     6     7 ar  
    13     6    30 1   
    14     7    34 1   
    15     8    21 ar  
    16     8    22 ar  
    17     8    23 1   
    18     9    18 1   
    19     9    25 1   
    20     9    35 1   
    21     9    36 1   
    22    10    18 1   
    23    10    24 1   
    24    10    37 1   
    25    10    38 1   
    26    11    12 ar  
    27    11    25 ar  
    28    11    39 1   
    29    12    13 ar  
    30    12    40 1   
    31    13    14 ar  
    32    13    41 1   
    33    14    24 ar  
    34    14    42 1   
    35    15    29 1   
    36    15    43 1   
    37    15    44 1   
    38    15    45 1   
    39    16    17 1   
    40    16    30 1   
    41    16    46 1   
    42    16    47 1   
    43    17    31 1   
    44    17    48 1   
    45    17    49 1   
    46    19    21 ar  
    47    20    22 ar  
    48    23    50 1   
    49    23    51 1   
    50    24    25 ar  
    51    26    27 1   
    52    26    28 2   
    53    26    30 1   
    54    27    29 1   
    55    27    52 1   
    56    29    53 1   
    57    29    54 1   
    58    30    31 1   
    59    31    55 1   
    60    31    56 1   
@<TRIPOS>SUBSTRUCTURE
     1 70L         1 TEMP              0 ****  ****    0 ROOT
