@<TRIPOS>MOLECULE
70L
   56    60     1     0     0
SMALL
abcg2


@<TRIPOS>ATOM
      1 C1           0.1860    -1.3060     0.6930 ca         1 70L      -0.167000
      2 C2          -1.7660     0.1240     1.4690 c          1 70L       0.509600
      3 O4          -1.3120     0.8610     2.3310 o          1 70L      -0.576100
      4 C7           0.9540    -0.2050     0.2630 ca         1 70L      -0.026000
      5 C9           1.9860    -2.7960     0.0500 ca         1 70L      -0.115000
      6 C11          2.2010    -0.3950    -0.2750 ca         1 70L      -0.096300
      7 C12          2.7080    -1.7100    -0.3640 ca         1 70L      -0.066000
      8 C13         -1.2220    -3.4700     1.4540 ca         1 70L       0.377900
      9 C15         -3.3540    -0.4030    -0.3700 c5         1 70L       0.152300
     10 C16         -3.5200     1.6960     0.8790 c5         1 70L       0.152300
     11 C19         -5.3120     0.1830    -1.9660 ca         1 70L      -0.088500
     12 C20         -6.2710     1.1300    -2.3030 ca         1 70L      -0.106000
     13 C21         -6.3630     2.3250    -1.5960 ca         1 70L      -0.106000
     14 C22         -5.5000     2.5900    -0.5410 ca         1 70L      -0.088500
     15 C27          6.6600     0.3120     2.4290 c3         1 70L      -0.111100
     16 C30          2.3200     1.8700    -1.5640 cy         1 70L      -0.075900
     17 C31          3.5910     1.9740    -2.4220 cy         1 70L      -0.093400
     18 N3          -2.8270     0.4210     0.7170 n          1 70L      -0.401800
     19 C5          -1.1220    -1.2160     1.2260 ca         1 70L       0.143500
     20 C6           0.6930    -2.6220     0.5880 ca         1 70L       0.081000
     21 N8          -1.8160    -2.2530     1.5880 nb         1 70L      -0.218000
     22 N10         -0.0220    -3.6940     0.9810 nb         1 70L      -0.250000
     23 N14         -1.9850    -4.5240     1.8230 nv         1 70L      -1.059900
     24 C17         -4.5470     1.6420    -0.2070 ca         1 70L      -0.101800
     25 C18         -4.4530     0.4540    -0.9130 ca         1 70L      -0.101800
     26 C23          3.6430     1.3950     0.5450 c          1 70L       0.616100
     27 N24          4.7820     0.8150     0.9640 ns         1 70L      -0.510900
     28 O25          3.1000     2.2950     1.1540 o          1 70L      -0.591100
     29 C26          5.4570     1.2020     2.1850 c3         1 70L       0.106000
     30 C28          3.0220     0.7850    -0.7180 cy         1 70L      -0.108700
     31 C29          4.0130     0.5940    -1.8960 cy         1 70L      -0.075900
     32 H1           0.5640     0.8000     0.3640 ha         1 70L       0.141000
     33 H2           2.3860    -3.7970    -0.0360 ha         1 70L       0.133000
     34 H3           3.6940    -1.8760    -0.7830 ha         1 70L       0.110000
     35 H4          -2.5890    -0.6060    -1.1250 h1         1 70L       0.067950
     36 H5          -3.7240    -1.3630    -0.0050 h1         1 70L       0.067950
     37 H6          -3.9680     1.7770     1.8740 h1         1 70L       0.067950
     38 H7          -2.8310     2.5360     0.7640 h1         1 70L       0.067950
     39 H8          -5.2430    -0.7460    -2.5170 ha         1 70L       0.119000
     40 H9          -6.9510     0.9380    -3.1210 ha         1 70L       0.115000
     41 H10         -7.1130     3.0540    -1.8720 ha         1 70L       0.115000
     42 H11         -5.5720     3.5220     0.0060 ha         1 70L       0.119000
     43 H12          7.1740     0.6190     3.3380 hc         1 70L       0.040700
     44 H13          6.3680    -0.7310     2.5500 hc         1 70L       0.040700
     45 H14          7.3760     0.3740     1.6080 hc         1 70L       0.040700
     46 H15          1.9750     2.7570    -1.0370 hc         1 70L       0.059450
     47 H16          1.4890     1.4430    -2.1280 hc         1 70L       0.059450
     48 H17          3.4670     2.0770    -3.4980 hc         1 70L       0.054700
     49 H18          4.2560     2.7640    -2.0710 hc         1 70L       0.054700
     50 H19         -2.8020    -4.3480     2.3770 hn         1 70L       0.495500
     51 H20         -1.5390    -5.4180     1.9210 hn         1 70L       0.495500
     52 H21          5.1850     0.0750     0.4150 hn         1 70L       0.312500
     53 H22          4.7620     1.1360     3.0240 h1         1 70L       0.051200
     54 H23          5.7710     2.2470     2.1200 h1         1 70L       0.051200
     55 H24          3.6730    -0.2020    -2.5600 hc         1 70L       0.059450
     56 H25          5.0720     0.4320    -1.6870 hc         1 70L       0.059450
@<TRIPOS>BOND
     1     1     4 ar  
     2     1    19 ar  
     3     1    20 ar  
     4     2     3 2   
     5     2    18 1   
     6     2    19 1   
     7     4     6 ar  
     8     4    32 1   
     9     5     7 ar  
    10     5    20 ar  
    11     5    33 1   
    12     6     7 ar  
    13     6    30 1   
    14     7    34 1   
    15     8    21 ar  
    16     8    22 ar  
    17     8    23 1   
    18     9    18 1   
    19     9    25 1   
    20     9    35 1   
    21     9    36 1   
    22    10    18 1   
    23    10    24 1   
    24    10    37 1   
    25    10    38 1   
    26    11    12 ar  
    27    11    25 ar  
    28    11    39 1   
    29    12    13 ar  
    30    12    40 1   
    31    13    14 ar  
    32    13    41 1   
    33    14    24 ar  
    34    14    42 1   
    35    15    29 1   
    36    15    43 1   
    37    15    44 1   
    38    15    45 1   
    39    16    17 1   
    40    16    30 1   
    41    16    46 1   
    42    16    47 1   
    43    17    31 1   
    44    17    48 1   
    45    17    49 1   
    46    19    21 ar  
    47    20    22 ar  
    48    23    50 1   
    49    23    51 1   
    50    24    25 ar  
    51    26    27 1   
    52    26    28 2   
    53    26    30 1   
    54    27    29 1   
    55    27    52 1   
    56    29    53 1   
    57    29    54 1   
    58    30    31 1   
    59    31    55 1   
    60    31    56 1   
@<TRIPOS>SUBSTRUCTURE
     1 70L         1 TEMP              0 ****  ****    0 ROOT
