@<TRIPOS>MOLECULE
70M
   55    58     1     0     0
SMALL
abcg2


@<TRIPOS>ATOM
      1 C1          -5.3350     0.7200     0.2740 ca         1 70M      -0.145800
      2 C2          -6.5290     1.3190    -0.2020 ca         1 70M       0.016800
      3 C3          -4.3660     1.7680     0.4450 cc         1 70M      -0.113400
      4 C7          -4.9970     2.9150     0.0750 cd         1 70M      -0.163100
      5 C8          -2.9550     1.6070     0.9030 c3         1 70M      -0.003200
      6 C9          -6.4680    -1.3890     0.2310 ca         1 70M      -0.149000
      7 C10         -7.6530    -0.7720    -0.2500 ca         1 70M       0.203100
      8 C11         -2.0410     1.0060    -0.1660 c3         1 70M      -0.075400
      9 C12         -6.4690    -2.7900     0.4560 cg         1 70M       0.323000
     10 C14         -0.6140     0.8170     0.3320 c3         1 70M      -0.079400
     11 C16          0.3120     0.3380    -0.7770 c3         1 70M       0.166800
     12 C19          2.3990    -0.6430    -1.3940 c6         1 70M       0.151800
     13 C20          3.7390     0.6250     0.7510 c6         1 70M       0.211300
     14 C21          3.7420    -1.1440    -0.9040 c6         1 70M       0.211300
     15 C24          6.6360    -0.8610    -1.1150 ca         1 70M      -0.195500
     16 C27          7.9450     0.3840     0.9840 ca         1 70M      -0.026000
     17 C4          -5.3160    -0.6470     0.4900 ca         1 70M       0.030000
     18 N5          -6.2900     2.6460    -0.3140 na         1 70M      -0.223700
     19 C6          -7.6860     0.5910    -0.4680 ca         1 70M      -0.191000
     20 O13         -8.7730    -1.4710    -0.5030 oh         1 70M      -0.532100
     21 N15         -6.5000    -3.9310     0.6310 n1         1 70M      -0.465000
     22 N17          1.6370    -0.0440    -0.3190 n3         1 70M      -0.710600
     23 C18          2.3910     1.0710     0.2140 c6         1 70M       0.151800
     24 N22          4.5030    -0.0830    -0.2590 nh         1 70M      -0.803400
     25 C23          5.8650    -0.1730    -0.1510 ca         1 70M       0.355000
     26 C25          6.5700     0.4350     0.9100 ca         1 70M      -0.195500
     27 C26          8.0080    -0.9110    -1.0370 ca         1 70M      -0.026000
     28 C28          8.6880    -0.2870     0.0130 ca         1 70M      -0.082000
     29 C29         10.1050    -0.3390     0.0890 cg         1 70M       0.337000
     30 N30         11.2570    -0.3800     0.1490 n1         1 70M      -0.471000
     31 H1          -4.6250     3.9280     0.0580 h4         1 70M       0.216000
     32 H2          -2.5580     2.5780     1.2100 hc         1 70M       0.045700
     33 H3          -2.9320     0.9700     1.7950 hc         1 70M       0.045700
     34 H4          -2.4450     0.0440    -0.4990 hc         1 70M       0.043700
     35 H5          -2.0450     1.6610    -1.0420 hc         1 70M       0.043700
     36 H6          -0.2600     1.7660     0.7450 hc         1 70M       0.046200
     37 H7          -0.5980     0.0930     1.1530 hc         1 70M       0.046200
     38 H8          -0.1340    -0.5430    -1.2490 h1         1 70M       0.032700
     39 H9           0.3700     1.1120    -1.5620 h1         1 70M       0.032700
     40 H10          2.5580     0.0690    -2.2230 h1         1 70M       0.042450
     41 H11          1.8490    -1.4940    -1.8000 h1         1 70M       0.042450
     42 H12          4.2710     1.5230     1.0580 h1         1 70M       0.049700
     43 H13          3.5970     0.0010     1.6430 h1         1 70M       0.049700
     44 H14          3.5920    -1.9740    -0.2010 h1         1 70M       0.049700
     45 H15          4.2790    -1.5360    -1.7620 h1         1 70M       0.049700
     46 H16          6.1660    -1.3450    -1.9570 ha         1 70M       0.116500
     47 H17          8.4450     0.8590     1.8170 ha         1 70M       0.120500
     48 H18         -4.4290    -1.1470     0.8590 ha         1 70M       0.128000
     49 H19         -6.9550     3.3380    -0.6180 hn         1 70M       0.355000
     50 H20         -8.5880     1.0660    -0.8330 ha         1 70M       0.136000
     51 H21         -8.6590    -2.4170    -0.3560 ho         1 70M       0.480000
     52 H23          1.8510     1.5310     1.0420 h1         1 70M       0.042450
     53 H24          2.5450     1.8530    -0.5500 h1         1 70M       0.042450
     54 H25          6.0470     0.9440     1.7050 ha         1 70M       0.116500
     55 H26          8.5610    -1.4360    -1.8050 ha         1 70M       0.120500
@<TRIPOS>BOND
     1     1     2 ar  
     2     1     3 1   
     3     1    17 ar  
     4     2    18 1   
     5     2    19 ar  
     6     3     4 2   
     7     3     5 1   
     8     4    18 1   
     9     4    31 1   
    10     5     8 1   
    11     5    32 1   
    12     5    33 1   
    13     6     7 ar  
    14     6     9 1   
    15     6    17 ar  
    16     7    19 ar  
    17     7    20 1   
    18     8    10 1   
    19     8    34 1   
    20     8    35 1   
    21     9    21 3   
    22    10    11 1   
    23    10    36 1   
    24    10    37 1   
    25    11    22 1   
    26    11    38 1   
    27    11    39 1   
    28    12    14 1   
    29    12    22 1   
    30    12    40 1   
    31    12    41 1   
    32    13    23 1   
    33    13    24 1   
    34    13    42 1   
    35    13    43 1   
    36    14    24 1   
    37    14    44 1   
    38    14    45 1   
    39    15    25 ar  
    40    15    27 ar  
    41    15    46 1   
    42    16    26 ar  
    43    16    28 ar  
    44    16    47 1   
    45    17    48 1   
    46    18    49 1   
    47    19    50 1   
    48    20    51 1   
    49    22    23 1   
    50    23    52 1   
    51    23    53 1   
    52    24    25 1   
    53    25    26 ar  
    54    26    54 1   
    55    27    28 ar  
    56    27    55 1   
    57    28    29 1   
    58    29    30 3   
@<TRIPOS>SUBSTRUCTURE
     1 70M         1 TEMP              0 ****  ****    0 ROOT
