@<TRIPOS>MOLECULE
70M
   55    58     1     0     0
SMALL
No Charge or Current Charge


@<TRIPOS>ATOM
      1 C1          -5.4600     0.7890     0.2280 ca         1 70M      -0.145800
      2 C2          -6.6080     1.3500    -0.2500 ca         1 70M       0.016800
      3 C3          -4.5010     1.8420     0.4140 cc         1 70M      -0.113400
      4 C7          -5.1440     3.0140     0.0300 cd         1 70M      -0.163100
      5 C8          -3.0870     1.6960     0.9100 c3         1 70M      -0.003200
      6 C9          -6.4740    -1.4030     0.1890 ca         1 70M      -0.149000
      7 C10         -7.6680    -0.8160    -0.3130 ca         1 70M       0.203100
      8 C11         -2.1490     1.0560    -0.1360 c3         1 70M      -0.075400
      9 C12         -6.3750    -2.8150     0.4260 cg         1 70M       0.323000
     10 C14         -0.6970     0.8940     0.3670 c3         1 70M      -0.079400
     11 C16          0.2340     0.2530    -0.6880 c3         1 70M       0.166800
     12 C19          2.3780    -0.8640    -1.1980 c6         1 70M       0.151800
     13 C20          3.8240     0.7820     0.7310 c6         1 70M       0.211300
     14 C21          3.7990    -1.2660    -0.6880 c6         1 70M       0.211300
     15 C24          6.7280    -0.5050    -1.3170 ca         1 70M      -0.195500
     16 C27          8.1110     0.0150     1.0670 ca         1 70M      -0.026000
     17 C4          -5.3520    -0.5880     0.4650 ca         1 70M       0.030000
     18 N5          -6.4650     2.7170    -0.3900 na         1 70M      -0.223700
     19 C6          -7.7360     0.5730    -0.5330 ca         1 70M      -0.191000
     20 O13         -8.7760    -1.5690    -0.5920 oh         1 70M      -0.532100
     21 N15         -6.3120    -3.9640     0.6130 n1         1 70M      -0.465000
     22 N17          1.6000    -0.0630    -0.2020 n3         1 70M      -0.710600
     23 C18          2.3980     1.1420     0.1980 c6         1 70M       0.151800
     24 N22          4.5930    -0.0860    -0.2160 nh         1 70M      -0.803400
     25 C23          6.0030    -0.1640    -0.1610 ca         1 70M       0.355000
     26 C25          6.7080     0.0970     1.0310 ca         1 70M      -0.195500
     27 C26          8.1310    -0.5880    -1.2890 ca         1 70M      -0.026000
     28 C28          8.8270    -0.3280    -0.0940 ca         1 70M      -0.082000
     29 C29         10.2610    -0.4110    -0.0610 cg         1 70M       0.337000
     30 N30         11.4260    -0.4860    -0.0260 n1         1 70M      -0.471000
     31 H1          -4.7580     4.0300     0.0190 h4         1 70M       0.216000
     32 H2          -2.6920     2.6810     1.1910 hc         1 70M       0.045700
     33 H3          -3.0810     1.0870     1.8220 hc         1 70M       0.045700
     34 H4          -2.5430     0.0720    -0.4220 hc         1 70M       0.043700
     35 H5          -2.1510     1.6740    -1.0420 hc         1 70M       0.043700
     36 H6          -0.3130     1.8800     0.6510 hc         1 70M       0.046200
     37 H7          -0.6950     0.2710     1.2700 hc         1 70M       0.046200
     38 H8          -0.2450    -0.6750    -1.0300 h1         1 70M       0.032700
     39 H9           0.2920     0.9210    -1.5590 h1         1 70M       0.032700
     40 H10          2.4950    -0.2910    -2.1300 h1         1 70M       0.042450
     41 H11          1.8310    -1.7830    -1.4570 h1         1 70M       0.042450
     42 H12          4.3680     1.7210     0.9140 h1         1 70M       0.049700
     43 H13          3.7160     0.2720     1.6990 h1         1 70M       0.049700
     44 H14          3.6850    -1.9850     0.1360 h1         1 70M       0.049700
     45 H15          4.3210    -1.7900    -1.5020 h1         1 70M       0.049700
     46 H16          6.2030    -0.6950    -2.2480 ha         1 70M       0.116500
     47 H17          8.6380     0.2170     1.9980 ha         1 70M       0.120500
     48 H18         -4.4290    -1.0140     0.8530 ha         1 70M       0.128000
     49 H19         -7.1650     3.3720    -0.7250 hn         1 70M       0.355000
     50 H20         -8.6470     1.0280    -0.9140 ha         1 70M       0.136000
     51 H21         -8.5800    -2.5080    -0.3900 ho         1 70M       0.480000
     52 H23          1.8820     1.7080     0.9850 h1         1 70M       0.042450
     53 H24          2.5110     1.8190    -0.6620 h1         1 70M       0.042450
     54 H25          6.1740     0.3530     1.9410 ha         1 70M       0.116500
     55 H26          8.6730    -0.8500    -2.1960 ha         1 70M       0.120500
@<TRIPOS>BOND
     1     1     2 ar  
     2     1     3 1   
     3     1    17 ar  
     4     2    18 1   
     5     2    19 ar  
     6     3     4 2   
     7     3     5 1   
     8     4    18 1   
     9     4    31 1   
    10     5     8 1   
    11     5    32 1   
    12     5    33 1   
    13     6     7 ar  
    14     6     9 1   
    15     6    17 ar  
    16     7    19 ar  
    17     7    20 1   
    18     8    10 1   
    19     8    34 1   
    20     8    35 1   
    21     9    21 3   
    22    10    11 1   
    23    10    36 1   
    24    10    37 1   
    25    11    22 1   
    26    11    38 1   
    27    11    39 1   
    28    12    14 1   
    29    12    22 1   
    30    12    40 1   
    31    12    41 1   
    32    13    23 1   
    33    13    24 1   
    34    13    42 1   
    35    13    43 1   
    36    14    24 1   
    37    14    44 1   
    38    14    45 1   
    39    15    25 ar  
    40    15    27 ar  
    41    15    46 1   
    42    16    26 ar  
    43    16    28 ar  
    44    16    47 1   
    45    17    48 1   
    46    18    49 1   
    47    19    50 1   
    48    20    51 1   
    49    22    23 1   
    50    23    52 1   
    51    23    53 1   
    52    24    25 1   
    53    25    26 ar  
    54    26    54 1   
    55    27    28 ar  
    56    27    55 1   
    57    28    29 1   
    58    29    30 3   
@<TRIPOS>SUBSTRUCTURE
     1 70M         1 TEMP              0 ****  ****    0 ROOT
