@<TRIPOS>MOLECULE
70N
   66    71     1     0     0
SMALL
No Charge or Current Charge


@<TRIPOS>ATOM
      1 C2           1.2580     0.5750    -2.7920 cp         1 70N      -0.102000
      2 C3           2.5670     1.1750    -2.4070 cp         1 70N       0.092000
      3 C7           4.7560     1.2210    -1.2510 ca         1 70N      -0.065000
      4 C8           3.5310     0.5750    -1.5390 ca         1 70N      -0.259500
      5 C14          2.6600     0.4410     1.3860 c6         1 70N       0.224300
      6 C15          1.6880     0.7980     2.5540 c6         1 70N       0.157800
      7 C19          0.4380    -0.0740     4.5060 c3         1 70N       0.154100
      8 C20         -1.0740    -0.0270    -2.2820 ca         1 70N      -0.174000
      9 C24         -2.1940    -0.1020    -1.4050 ca         1 70N       0.144500
     10 N29         -2.3840    -1.1300    -3.9710 nb         1 70N      -0.250000
     11 C30          1.0790     0.0630    -4.0950 ca         1 70N      -0.060000
     12 C31         -3.3720    -1.1550    -3.0700 ca         1 70N       0.392900
     13 C33         -2.8100    -1.7430     1.0010 c5         1 70N       0.151800
     14 C34         -2.9090     0.3220     2.4200 c5         1 70N       0.151800
     15 C35         -2.9010    -0.9330     3.2510 ca         1 70N      -0.101300
     16 N1           2.1280    -0.6320     0.4900 n3         1 70N      -0.794500
     17 C4           2.8940     2.4310    -2.9730 ca         1 70N      -0.142000
     18 C5           4.1080     3.0720    -2.6850 ca         1 70N       0.182000
     19 C6           5.0400     2.4690    -1.8230 ca         1 70N       0.117000
     20 S9           3.1600    -1.0430    -0.7980 sy         1 70N       1.198600
     21 O10          2.3540    -1.8360    -1.7310 o          1 70N      -0.532000
     22 O11          4.3790    -1.5860    -0.1880 o          1 70N      -0.532000
     23 F12          4.3760     4.2740    -3.2450 f          1 70N      -0.150000
     24 F13          6.2120     3.0830    -1.5420 f          1 70N      -0.156000
     25 N16          1.3050    -0.4010     3.3560 n3         1 70N      -0.719600
     26 C17          0.7150    -1.4300     2.4490 c6         1 70N       0.157800
     27 C18          1.6870    -1.8130     1.2890 c6         1 70N       0.224300
     28 N22         -2.7770    -0.2420     1.0370 n          1 70N      -0.401800
     29 O23         -1.8220     1.6600     0.1950 o          1 70N      -0.584100
     30 C25         -1.2220    -0.5660    -3.5860 ca         1 70N       0.095000
     31 C26          0.1660     0.5320    -1.8930 ca         1 70N      -0.002000
     32 N27         -3.3490    -0.6710    -1.8240 nb         1 70N      -0.221000
     33 C28         -0.1420    -0.5070    -4.4820 ca         1 70N      -0.104000
     34 N32         -4.5350    -1.7230    -3.4750 nv         1 70N      -1.073900
     35 C36         -2.8370    -2.0690     2.4700 ca         1 70N      -0.101300
     36 C37         -2.7940    -3.3460     3.0530 ca         1 70N      -0.088500
     37 C38         -2.8210    -3.4530     4.4570 ca         1 70N      -0.106000
     38 C39         -2.8920    -2.2920     5.2550 ca         1 70N      -0.106000
     39 C40         -2.9340    -1.0200     4.6520 ca         1 70N      -0.088500
     40 H1           5.4860     0.7630    -0.5870 ha         1 70N       0.140000
     41 H2           2.8510     1.3650     0.8230 h1         1 70N       0.059950
     42 H3           3.6190     0.1280     1.8260 h1         1 70N       0.059950
     43 H4           2.1720     1.5480     3.1960 h1         1 70N       0.043700
     44 H5           0.7900     1.2700     2.1280 h1         1 70N       0.043700
     45 H6          -0.4890     0.4090     4.1750 h1         1 70N       0.033367
     46 H7           0.1750    -0.9820     5.0650 h1         1 70N       0.033367
     47 H8           0.9530     0.6100     5.1940 h1         1 70N       0.033367
     48 H9           1.9040     0.0960    -4.8050 ha         1 70N       0.135000
     49 H10         -3.7090    -2.1200     0.4970 h1         1 70N       0.068450
     50 H11         -1.9200    -2.1650     0.5150 h1         1 70N       0.068450
     51 H12         -3.8480     0.8790     2.5400 h1         1 70N       0.068450
     52 H13         -2.0700     0.9800     2.6810 h1         1 70N       0.068450
     53 H14          2.1880     2.9140    -3.6430 ha         1 70N       0.148000
     54 H16          0.4590    -2.3390     3.0130 h1         1 70N       0.043700
     55 H17         -0.2160    -1.0490     2.0080 h1         1 70N       0.043700
     56 H18          1.1790    -2.5460     0.6440 h1         1 70N       0.059950
     57 H19          2.5570    -2.3230     1.7290 h1         1 70N       0.059950
     58 H20          0.3110     0.9300    -0.8930 ha         1 70N       0.130000
     59 H21         -0.2510    -0.9100    -5.4860 ha         1 70N       0.139000
     60 H22         -4.6660    -1.8930    -4.4700 hn         1 70N       0.503500
     61 H23         -5.3760    -1.5570    -2.9280 hn         1 70N       0.503500
     62 H24         -2.7390    -4.2370     2.4320 ha         1 70N       0.118500
     63 H25         -2.7880    -4.4340     4.9270 ha         1 70N       0.115000
     64 H26         -2.9140    -2.3780     6.3400 ha         1 70N       0.115000
     65 H27         -2.9840    -0.1200     5.2620 ha         1 70N       0.118500
     66 C21         -2.2050     0.5130    -0.0100 c          1 70N       0.515600
@<TRIPOS>BOND
     1     1     2 1   
     2     1    11 ar  
     3     1    31 ar  
     4     2     4 ar  
     5     2    17 ar  
     6     3     4 ar  
     7     3    19 ar  
     8     3    40 1   
     9     4    20 1   
    10     5     6 1   
    11     5    16 1   
    12     5    41 1   
    13     5    42 1   
    14     6    25 1   
    15     6    43 1   
    16     6    44 1   
    17     7    25 1   
    18     7    45 1   
    19     7    46 1   
    20     7    47 1   
    21     8     9 ar  
    22     8    30 ar  
    23     8    31 ar  
    24     9    32 ar  
    25     9    66 1   
    26    10    12 ar  
    27    10    30 ar  
    28    11    33 ar  
    29    11    48 1   
    30    12    32 ar  
    31    12    34 1   
    32    13    28 1   
    33    13    35 1   
    34    13    49 1   
    35    13    50 1   
    36    14    15 1   
    37    14    28 1   
    38    14    51 1   
    39    14    52 1   
    40    15    35 ar  
    41    15    39 ar  
    42    16    20 1   
    43    16    27 1   
    44    17    18 ar  
    45    17    53 1   
    46    18    19 ar  
    47    18    23 1   
    48    19    24 1   
    49    20    21 2   
    50    20    22 2   
    51    25    26 1   
    52    26    27 1   
    53    26    54 1   
    54    26    55 1   
    55    27    56 1   
    56    27    57 1   
    57    28    66 1   
    58    29    66 2   
    59    30    33 ar  
    60    31    58 1   
    61    33    59 1   
    62    34    60 1   
    63    34    61 1   
    64    35    36 ar  
    65    36    37 ar  
    66    36    62 1   
    67    37    38 ar  
    68    37    63 1   
    69    38    39 ar  
    70    38    64 1   
    71    39    65 1   
@<TRIPOS>SUBSTRUCTURE
     1 70N         1 TEMP              0 ****  ****    0 ROOT
