@<TRIPOS>MOLECULE
70N
   66    71     1     0     0
SMALL
abcg2


@<TRIPOS>ATOM
      1 C2           0.5880     0.3720    -2.0770 cp         1 70N      -0.102000
      2 C3           1.6330     1.2260    -1.4700 cp         1 70N       0.092000
      3 C7           3.6530     1.6090    -0.1830 ca         1 70N      -0.065000
      4 C8           2.6850     0.7480    -0.6830 ca         1 70N      -0.259500
      5 C14          3.2830    -0.6170     2.3750 c6         1 70N       0.224300
      6 C15          3.7650    -1.5910     3.4330 c6         1 70N       0.157800
      7 C19          5.7070    -2.5540     4.4620 c3         1 70N       0.154100
      8 C20         -1.7290    -0.2000    -2.3850 ca         1 70N      -0.174000
      9 C24         -3.1130    -0.0820    -2.1110 ca         1 70N       0.144500
     10 N29         -2.3280    -1.9360    -3.9470 nb         1 70N      -0.250000
     11 C30          0.9280    -0.6000    -3.0470 ca         1 70N      -0.060000
     12 C31         -3.5730    -1.7250    -3.6010 ca         1 70N       0.392900
     13 C33         -4.2810    -0.8100     0.3920 c5         1 70N       0.151800
     14 C34         -4.7210     1.5390     0.9130 c5         1 70N       0.151800
     15 C35         -5.1180     0.6590     2.0550 ca         1 70N      -0.101300
     16 N1           3.7690    -1.0550     1.0720 n3         1 70N      -0.794500
     17 C4           1.5650     2.5970    -1.7040 ca         1 70N      -0.142000
     18 C5           2.5160     3.4510    -1.1930 ca         1 70N       0.182000
     19 C6           3.5680     2.9570    -0.4440 ca         1 70N       0.117000
     20 S9           2.8060    -0.9810    -0.2460 sy         1 70N       1.198600
     21 O10          1.4810    -1.4190     0.1290 o          1 70N      -0.532000
     22 O11          3.5210    -1.6580    -1.3220 o          1 70N      -0.532000
     23 F12          2.4280     4.7610    -1.4140 f          1 70N      -0.150000
     24 F13          4.4840     3.7960     0.0320 f          1 70N      -0.156000
     25 N16          5.2060    -1.7270     3.3880 n3         1 70N      -0.719600
     26 C17          5.6350    -2.2090     2.0960 c6         1 70N       0.157800
     27 C18          5.2070    -1.2470     1.0020 c6         1 70N       0.224300
     28 N22         -4.1870     0.5780    -0.0450 n          1 70N      -0.401800
     29 O23         -3.4980     2.1570    -1.5060 o          1 70N      -0.584100
     30 C25         -1.3900    -1.1850    -3.3380 ca         1 70N       0.095000
     31 C26         -0.7310     0.5750    -1.7700 ca         1 70N      -0.002000
     32 N27         -4.0130    -0.8200    -2.6880 nb         1 70N      -0.221000
     33 C28         -0.0270    -1.3590    -3.6610 ca         1 70N      -0.104000
     34 N32         -4.5450    -2.4570    -4.1860 nv         1 70N      -1.073900
     35 C36         -4.8680    -0.6700     1.7610 ca         1 70N      -0.101300
     36 C37         -5.1610    -1.6680     2.6740 ca         1 70N      -0.088500
     37 C38         -5.7100    -1.3100     3.8980 ca         1 70N      -0.106000
     38 C39         -5.9630     0.0250     4.1940 ca         1 70N      -0.106000
     39 C40         -5.6700     1.0200     3.2730 ca         1 70N      -0.088500
     40 H1           4.4790     1.2600     0.4200 ha         1 70N       0.140000
     41 H2           2.1960    -0.5850     2.3830 h1         1 70N       0.059950
     42 H3           3.6530     0.3910     2.5950 h1         1 70N       0.059950
     43 H4           3.4730    -1.2090     4.4130 h1         1 70N       0.043700
     44 H5           3.2490    -2.5550     3.2900 h1         1 70N       0.043700
     45 H6           5.3620    -3.5970     4.4090 h1         1 70N       0.033367
     46 H7           6.7970    -2.5620     4.4500 h1         1 70N       0.033367
     47 H8           5.3890    -2.1470     5.4220 h1         1 70N       0.033367
     48 H9           1.9630    -0.7210    -3.3390 ha         1 70N       0.135000
     49 H10         -4.9200    -1.3990    -0.2690 h1         1 70N       0.068450
     50 H11         -3.2990    -1.2920     0.4190 h1         1 70N       0.068450
     51 H12         -5.5670     2.0880     0.4920 h1         1 70N       0.068450
     52 H13         -3.9650     2.2780     1.1930 h1         1 70N       0.068450
     53 H14          0.7630     3.0030    -2.3060 ha         1 70N       0.148000
     54 H16          6.7250    -2.2820     2.0880 h1         1 70N       0.043700
     55 H17          5.2370    -3.2140     1.8710 h1         1 70N       0.043700
     56 H18          5.4830    -1.6440     0.0280 h1         1 70N       0.059950
     57 H19          5.7310    -0.2930     1.1440 h1         1 70N       0.059950
     58 H20         -1.0000     1.3320    -1.0430 ha         1 70N       0.130000
     59 H21          0.2420    -2.0930    -4.4090 ha         1 70N       0.139000
     60 H22         -4.3170    -3.0530    -4.9590 hn         1 70N       0.503500
     61 H23         -5.5040    -2.2130    -4.0300 hn         1 70N       0.503500
     62 H24         -4.9580    -2.7050     2.4420 ha         1 70N       0.118500
     63 H25         -5.9420    -2.0740     4.6290 ha         1 70N       0.115000
     64 H26         -6.3910     0.2910     5.1510 ha         1 70N       0.115000
     65 H27         -5.8650     2.0580     3.5080 ha         1 70N       0.118500
     66 C21         -3.6180     0.9930    -1.1830 c          1 70N       0.515600
@<TRIPOS>BOND
     1     1     2 1   
     2     1    11 ar  
     3     1    31 ar  
     4     2     4 ar  
     5     2    17 ar  
     6     3     4 ar  
     7     3    19 ar  
     8     3    40 1   
     9     4    20 1   
    10     5     6 1   
    11     5    16 1   
    12     5    41 1   
    13     5    42 1   
    14     6    25 1   
    15     6    43 1   
    16     6    44 1   
    17     7    25 1   
    18     7    45 1   
    19     7    46 1   
    20     7    47 1   
    21     8     9 ar  
    22     8    30 ar  
    23     8    31 ar  
    24     9    32 ar  
    25     9    66 1   
    26    10    12 ar  
    27    10    30 ar  
    28    11    33 ar  
    29    11    48 1   
    30    12    32 ar  
    31    12    34 1   
    32    13    28 1   
    33    13    35 1   
    34    13    49 1   
    35    13    50 1   
    36    14    15 1   
    37    14    28 1   
    38    14    51 1   
    39    14    52 1   
    40    15    35 ar  
    41    15    39 ar  
    42    16    20 1   
    43    16    27 1   
    44    17    18 ar  
    45    17    53 1   
    46    18    19 ar  
    47    18    23 1   
    48    19    24 1   
    49    20    21 2   
    50    20    22 2   
    51    25    26 1   
    52    26    27 1   
    53    26    54 1   
    54    26    55 1   
    55    27    56 1   
    56    27    57 1   
    57    28    66 1   
    58    29    66 2   
    59    30    33 ar  
    60    31    58 1   
    61    33    59 1   
    62    34    60 1   
    63    34    61 1   
    64    35    36 ar  
    65    36    37 ar  
    66    36    62 1   
    67    37    38 ar  
    68    37    63 1   
    69    38    39 ar  
    70    38    64 1   
    71    39    65 1   
@<TRIPOS>SUBSTRUCTURE
     1 70N         1 TEMP              0 ****  ****    0 ROOT
