@<TRIPOS>MOLECULE
70O
   69    72     1     0     0
SMALL
No Charge or Current Charge


@<TRIPOS>ATOM
      1 C1          -1.6930     0.4030    -0.5810 ca         1 70O      -0.096500
      2 C2          -1.1850     0.9910     0.5970 ca         1 70O      -0.060000
      3 C3          -2.0810     1.2180     1.6660 ca         1 70O      -0.096500
      4 C7          -5.3450    -0.3730     0.3850 c6         1 70O      -0.019400
      5 C9           0.8300     1.7480     1.8970 c3         1 70O       0.098300
      6 C10          0.6820     2.2300    -0.5360 c          1 70O       0.628700
      7 C12          2.1540     2.0680    -0.8460 ca         1 70O      -0.242600
      8 C13          2.8870     0.9680    -0.3360 ca         1 70O       0.025000
      9 C14          4.1870     2.8500    -1.9990 ca         1 70O      -0.163000
     10 C15          2.8170     2.9900    -1.7010 ca         1 70O       0.189100
     11 C19          5.2190    -0.0990    -0.2980 cc         1 70O      -0.066300
     12 C22          5.0410    -1.3340     0.5460 c3         1 70O      -0.020200
     13 C24          3.9080    -3.7320     0.6260 c3         1 70O      -0.046000
     14 C31          3.1350    -4.7070    -0.3010 c3         1 70O      -0.085100
     15 C32          3.0110    -3.4000     1.8500 c3         1 70O      -0.085100
     16 C33          5.2050    -4.4340     1.1110 c3         1 70O      -0.085100
     17 C4          -3.4100     0.7650     1.5990 ca         1 70O      -0.104500
     18 C5          -3.8900     0.1160     0.4460 ca         1 70O      -0.063300
     19 C6          -3.0210    -0.0510    -0.6490 ca         1 70O      -0.104500
     20 N8           0.1410     1.5680     0.5940 n          1 70O      -0.230400
     21 O11         -0.0390     2.8520    -1.3130 o          1 70O      -0.623100
     22 O16          2.1340     4.0290    -2.2550 oh         1 70O      -0.552100
     23 C17          4.8960     1.7710    -1.4600 ca         1 70O      -0.010000
     24 C18          4.2450     0.8680    -0.6620 ca         1 70O      -0.198000
     25 N20          6.4040     0.2940    -0.9090 na         1 70O       0.015500
     26 N21          6.2470     1.4720    -1.6550 nc         1 70O      -0.290400
     27 C23          4.2420    -2.4410    -0.1900 c3         1 70O      -0.068400
     28 C25         -6.1610     0.3520    -0.7160 c6         1 70O      -0.070900
     29 C26         -7.6180    -0.1690    -0.7660 c6         1 70O       0.165300
     30 N27         -7.6660    -1.6430    -0.9690 n3         1 70O      -0.716600
     31 C28         -6.9190    -2.3660     0.0970 c6         1 70O       0.165300
     32 C29         -5.4420    -1.9060     0.1700 c6         1 70O      -0.070900
     33 H1          -1.0490     0.2730    -1.4480 ha         1 70O       0.120000
     34 H2          -1.7620     1.7420     2.5620 ha         1 70O       0.120000
     35 H3          -5.8250    -0.1480     1.3490 hc         1 70O       0.051700
     36 H4           0.8230     0.8010     2.4510 h1         1 70O       0.045033
     37 H5           1.8680     2.0750     1.7640 h1         1 70O       0.045033
     38 H6           0.3140     2.5160     2.4850 h1         1 70O       0.045033
     39 H7           2.4220     0.2060     0.2850 ha         1 70O       0.115000
     40 H8           4.6840     3.5670    -2.6470 ha         1 70O       0.145000
     41 H9           6.0230    -1.7200     0.8430 hc         1 70O       0.058200
     42 H10          4.5240    -1.0510     1.4700 hc         1 70O       0.058200
     43 H11         -9.5540    -1.6370    -1.9570 h1         1 70O       0.029700
     44 H12         -9.0490    -3.2220    -1.3340 h1         1 70O       0.029700
     45 H13         -9.6330    -1.9710    -0.2100 h1         1 70O       0.029700
     46 H14          2.2030    -4.2530    -0.6590 hc         1 70O       0.034478
     47 H15          3.7370    -4.9780    -1.1770 hc         1 70O       0.034478
     48 H16          2.8760    -5.6330     0.2280 hc         1 70O       0.034478
     49 H17          3.5450    -2.7920     2.5890 hc         1 70O       0.034478
     50 H18          2.1130    -2.8510     1.5400 hc         1 70O       0.034478
     51 H19          2.6860    -4.3180     2.3550 hc         1 70O       0.034478
     52 H20          4.9730    -5.3890     1.5970 hc         1 70O       0.034478
     53 H21          5.8790    -4.6380     0.2700 hc         1 70O       0.034478
     54 H22          5.7460    -3.8180     1.8400 hc         1 70O       0.034478
     55 H23         -4.0710     0.9320     2.4470 ha         1 70O       0.116000
     56 H24         -3.3730    -0.5250    -1.5610 ha         1 70O       0.116000
     57 H25          1.1750     3.8520    -2.0680 ho         1 70O       0.506000
     58 H26          7.3010    -0.1800    -0.8580 hn         1 70O       0.369000
     59 H27          3.3020    -2.0050    -0.5520 hc         1 70O       0.047700
     60 H28          4.8050    -2.7230    -1.0880 hc         1 70O       0.047700
     61 H29         -6.1640     1.4340    -0.5290 hc         1 70O       0.050450
     62 H30         -5.6930     0.2060    -1.6980 hc         1 70O       0.050450
     63 H31         -8.1280     0.1020     0.1710 h1         1 70O       0.030700
     64 H32         -8.1480     0.3440    -1.5820 h1         1 70O       0.030700
     65 H34         -7.3950    -2.2000     1.0750 h1         1 70O       0.030700
     66 H35         -6.9400    -3.4500    -0.0910 h1         1 70O       0.030700
     67 H36         -4.9290    -2.1960    -0.7560 hc         1 70O       0.050450
     68 H37         -4.9330    -2.4320     0.9890 hc         1 70O       0.050450
     69 C30         -9.0490    -2.1440    -1.1240 c3         1 70O       0.153100
@<TRIPOS>BOND
     1     1     2 ar  
     2     1    19 ar  
     3     1    33 1   
     4     2     3 ar  
     5     2    20 1   
     6     3    17 ar  
     7     3    34 1   
     8     4    18 1   
     9     4    28 1   
    10     4    32 1   
    11     4    35 1   
    12     5    20 1   
    13     5    36 1   
    14     5    37 1   
    15     5    38 1   
    16     6     7 1   
    17     6    20 1   
    18     6    21 2   
    19     7     8 ar  
    20     7    10 ar  
    21     8    24 ar  
    22     8    39 1   
    23     9    10 ar  
    24     9    23 ar  
    25     9    40 1   
    26    10    22 1   
    27    11    12 1   
    28    11    24 2   
    29    11    25 1   
    30    12    27 1   
    31    12    41 1   
    32    12    42 1   
    33    13    14 1   
    34    13    15 1   
    35    13    16 1   
    36    13    27 1   
    37    14    46 1   
    38    14    47 1   
    39    14    48 1   
    40    15    49 1   
    41    15    50 1   
    42    15    51 1   
    43    16    52 1   
    44    16    53 1   
    45    16    54 1   
    46    17    18 ar  
    47    17    55 1   
    48    18    19 ar  
    49    19    56 1   
    50    22    57 1   
    51    23    24 ar  
    52    23    26 2   
    53    25    26 1   
    54    25    58 1   
    55    27    59 1   
    56    27    60 1   
    57    28    29 1   
    58    28    61 1   
    59    28    62 1   
    60    29    30 1   
    61    29    63 1   
    62    29    64 1   
    63    30    31 1   
    64    30    69 1   
    65    31    32 1   
    66    31    65 1   
    67    31    66 1   
    68    32    67 1   
    69    32    68 1   
    70    43    69 1   
    71    44    69 1   
    72    45    69 1   
@<TRIPOS>SUBSTRUCTURE
     1 70O         1 TEMP              0 ****  ****    0 ROOT
