@<TRIPOS>MOLECULE
70O
   69    72     1     0     0
SMALL
bcc


@<TRIPOS>ATOM
      1 C1          -2.1160    -0.4240    -0.2960 ca         1 70O      -0.114500
      2 C2          -1.6370     0.7690     0.2180 ca         1 70O       0.032600
      3 C3          -2.5290     1.7730     0.5740 ca         1 70O      -0.114500
      4 C7          -5.8870     0.1920    -0.1900 c6         1 70O      -0.019400
      5 C9           0.2640     0.5320     1.7280 c3         1 70O       0.098300
      6 C10          0.4580     1.6050    -0.5240 c          1 70O       0.695700
      7 C12          1.9360     1.6960    -0.4330 ca         1 70O      -0.242600
      8 C13          2.7070     0.6350    -0.0280 ca         1 70O       0.007000
      9 C14          3.9230     3.0790    -0.8410 ca         1 70O      -0.181000
     10 C15          2.5640     2.9130    -0.8950 ca         1 70O       0.189100
     11 C19          5.1630    -0.0600     0.3570 cc         1 70O      -0.066300
     12 C22          5.1890    -1.4850     0.7770 c3         1 70O      -0.020200
     13 C24          5.2770    -3.9230    -0.1130 c3         1 70O      -0.046000
     14 C31          5.5720    -4.6840    -1.4070 c3         1 70O      -0.085100
     15 C32          3.8760    -4.3000     0.3720 c3         1 70O      -0.085100
     16 C33          6.3140    -4.3110     0.9430 c3         1 70O      -0.085100
     17 C4          -3.8890     1.5730     0.4130 ca         1 70O      -0.122500
     18 C5          -4.3930     0.3740    -0.0960 ca         1 70O      -0.063300
     19 C6          -3.4840    -0.6190    -0.4480 ca         1 70O      -0.122500
     20 N8          -0.2360     0.9470     0.4240 n          1 70O      -0.390000
     21 O11         -0.1240     2.1480    -1.4710 o          1 70O      -0.623100
     22 O16          1.8130     3.9210    -1.3690 oh         1 70O      -0.513100
     23 C17          4.7120     2.0040    -0.3790 ca         1 70O      -0.010000
     24 C18          4.1010     0.7750    -0.0030 ca         1 70O      -0.198000
     25 N20          6.2490     0.6910     0.1820 na         1 70O       0.065800
     26 N21          6.0350     1.9370    -0.2570 nc         1 70O      -0.290400
     27 C23          5.3560    -2.4210    -0.4270 c3         1 70O      -0.068400
     28 C25         -6.3550    -0.7860    -1.2630 c6         1 70O      -0.070900
     29 C26         -7.8740    -0.8760    -1.2700 c6         1 70O       0.165300
     30 N27         -8.3810    -1.2950     0.0230 n3         1 70O      -0.716600
     31 C28         -7.9830    -0.3750     1.0710 c6         1 70O       0.165300
     32 C29         -6.4700    -0.2470     1.1580 c6         1 70O      -0.070900
     33 H1          -1.4220    -1.2070    -0.5770 ha         1 70O       0.138000
     34 H2          -2.1590     2.7080     0.9760 ha         1 70O       0.138000
     35 H3          -6.3190     1.1730    -0.4270 hc         1 70O       0.051700
     36 H4           0.4860    -0.5350     1.7610 h1         1 70O       0.045033
     37 H5           1.1550     1.0890     2.0010 h1         1 70O       0.045033
     38 H6          -0.5010     0.7400     2.4740 h1         1 70O       0.045033
     39 H7           2.2510    -0.3040     0.2610 ha         1 70O       0.133000
     40 H8           4.3740     4.0040    -1.1770 ha         1 70O       0.163000
     41 H9           5.9970    -1.6430     1.4940 hc         1 70O       0.058200
     42 H10          4.2590    -1.7030     1.3050 hc         1 70O       0.058200
     43 H11        -10.0860    -2.2200    -0.7520 h1         1 70O       0.029700
     44 H12        -10.1690    -1.8230     0.9640 h1         1 70O       0.029700
     45 H13        -10.3630    -0.5470    -0.2470 h1         1 70O       0.029700
     46 H14          4.8610    -4.4200    -2.1930 hc         1 70O       0.034478
     47 H15          6.5750    -4.4620    -1.7800 hc         1 70O       0.034478
     48 H16          5.5070    -5.7630    -1.2510 hc         1 70O       0.034478
     49 H17          3.6040    -3.7890     1.2970 hc         1 70O       0.034478
     50 H18          3.1220    -4.0530    -0.3790 hc         1 70O       0.034478
     51 H19          3.8100    -5.3730     0.5650 hc         1 70O       0.034478
     52 H20          6.3320    -5.3940     1.0840 hc         1 70O       0.034478
     53 H21          7.3170    -3.9970     0.6470 hc         1 70O       0.034478
     54 H22          6.0960    -3.8630     1.9150 hc         1 70O       0.034478
     55 H23         -4.5760     2.3650     0.6860 ha         1 70O       0.134000
     56 H24         -3.8310    -1.5620    -0.8500 ha         1 70O       0.134000
     57 H25          0.9330     3.5580    -1.5950 ho         1 70O       0.467000
     58 H26          7.1990     0.3970     0.3540 hn         1 70O       0.318700
     59 H27          4.5930    -2.1790    -1.1750 hc         1 70O       0.047700
     60 H28          6.3230    -2.2090    -0.8930 hc         1 70O       0.047700
     61 H29         -6.0020    -0.4770    -2.2490 hc         1 70O       0.050450
     62 H30         -5.9520    -1.7840    -1.0700 hc         1 70O       0.050450
     63 H31         -8.2980     0.1000    -1.5720 h1         1 70O       0.030700
     64 H32         -8.1940    -1.6020    -2.0220 h1         1 70O       0.030700
     65 H34         -8.4150     0.6310     0.9100 h1         1 70O       0.030700
     66 H35         -8.3800    -0.7360     2.0230 h1         1 70O       0.030700
     67 H36         -6.0300    -1.2070     1.4470 hc         1 70O       0.050450
     68 H37         -6.2160     0.4740     1.9380 hc         1 70O       0.050450
     69 C30         -9.8140    -1.4720    -0.0060 c3         1 70O       0.153100
@<TRIPOS>BOND
     1     1     2 ar  
     2     1    19 ar  
     3     1    33 1   
     4     2     3 ar  
     5     2    20 1   
     6     3    17 ar  
     7     3    34 1   
     8     4    18 1   
     9     4    28 1   
    10     4    32 1   
    11     4    35 1   
    12     5    20 1   
    13     5    36 1   
    14     5    37 1   
    15     5    38 1   
    16     6     7 1   
    17     6    20 1   
    18     6    21 2   
    19     7     8 ar  
    20     7    10 ar  
    21     8    24 ar  
    22     8    39 1   
    23     9    10 ar  
    24     9    23 ar  
    25     9    40 1   
    26    10    22 1   
    27    11    12 1   
    28    11    24 2   
    29    11    25 1   
    30    12    27 1   
    31    12    41 1   
    32    12    42 1   
    33    13    14 1   
    34    13    15 1   
    35    13    16 1   
    36    13    27 1   
    37    14    46 1   
    38    14    47 1   
    39    14    48 1   
    40    15    49 1   
    41    15    50 1   
    42    15    51 1   
    43    16    52 1   
    44    16    53 1   
    45    16    54 1   
    46    17    18 ar  
    47    17    55 1   
    48    18    19 ar  
    49    19    56 1   
    50    22    57 1   
    51    23    24 ar  
    52    23    26 2   
    53    25    26 1   
    54    25    58 1   
    55    27    59 1   
    56    27    60 1   
    57    28    29 1   
    58    28    61 1   
    59    28    62 1   
    60    29    30 1   
    61    29    63 1   
    62    29    64 1   
    63    30    31 1   
    64    30    69 1   
    65    31    32 1   
    66    31    65 1   
    67    31    66 1   
    68    32    67 1   
    69    32    68 1   
    70    43    69 1   
    71    44    69 1   
    72    45    69 1   
@<TRIPOS>SUBSTRUCTURE
     1 70O         1 TEMP              0 ****  ****    0 ROOT
