@<TRIPOS>MOLECULE
70P
   46    48     1     0     0
SMALL
abcg2


@<TRIPOS>ATOM
      1 C1          28.7270    25.9870    29.7370 ca         1 70P      -0.108500
      2 C2          29.2820    24.7150    29.8240 ca         1 70P      -0.111000
      3 C3          29.2920    23.8950    28.7000 ca         1 70P      -0.108500
      4 O1          22.1010    22.9110    28.7750 os         1 70P      -0.412100
      5 C11         23.6900    28.2050    27.6890 ca         1 70P       0.160900
      6 C12         24.2390    23.3750    27.8730 c5         1 70P       0.096700
      7 C13         23.1660    22.2900    28.0150 c5         1 70P       0.140600
      8 C14         22.2340    24.2510    28.7530 c          1 70P       0.708100
      9 C15         25.4460    23.2270    28.8150 c3         1 70P      -0.077700
     10 C16         25.0620    23.2130    30.2940 c3         1 70P      -0.088600
     11 C17         26.2500    21.9860    28.4280 c3         1 70P      -0.088600
     12 C18         28.7100    26.4620    25.0970 c3         1 70P      -0.101100
     13 C4          28.7420    24.3430    27.5060 ca         1 70P      -0.104000
     14 C5          28.1810    25.6160    27.4100 ca         1 70P      -0.099300
     15 C6          28.1840    26.4350    28.5360 ca         1 70P      -0.104000
     16 C7          27.6020    26.0700    26.0760 c3         1 70P       0.293800
     17 N1          26.6790    27.1860    26.1950 nu         1 70P      -0.922100
     18 N2          24.8580    28.2940    27.0560 nb         1 70P      -0.262000
     19 C8          25.4850    27.1220    26.8330 ca         1 70P       0.400900
     20 N3          25.0240    25.9130    27.1800 nb         1 70P      -0.301000
     21 C9          23.8570    25.8600    27.8170 ca         1 70P       0.307900
     22 C10         23.1240    27.0150    28.1130 ca         1 70P      -0.295000
     23 N4          23.4300    24.5770    28.1490 n          1 70P      -0.431300
     24 H1          28.7110    26.6330    30.6070 ha         1 70P       0.113500
     25 H2          29.6980    24.3630    30.7600 ha         1 70P       0.114000
     26 H3          29.7120    22.8980    28.7580 ha         1 70P       0.113500
     27 H4          23.1740    29.1410    27.8770 h4         1 70P       0.024100
     28 H5          24.6010    23.4220    26.8480 h1         1 70P       0.089700
     29 H6          22.7560    21.9850    27.0530 h1         1 70P       0.072200
     30 H7          23.5000    21.4170    28.5670 h1         1 70P       0.072200
     31 H8          26.0740    24.1000    28.6330 hc         1 70P       0.085700
     32 H9          25.9630    23.1600    30.9070 hc         1 70P       0.037200
     33 H10         24.5220    24.1180    30.5800 hc         1 70P       0.037200
     34 H11         24.4410    22.3500    30.5450 hc         1 70P       0.037200
     35 H12         27.1530    21.9210    29.0350 hc         1 70P       0.037200
     36 H13         25.6760    21.0690    28.5850 hc         1 70P       0.037200
     37 H14         26.5530    22.0230    27.3800 hc         1 70P       0.037200
     38 H15         29.4080    25.6360    24.9700 hc         1 70P       0.047367
     39 H16         28.2850    26.7170    24.1250 hc         1 70P       0.047367
     40 H17         29.2640    27.3240    25.4770 hc         1 70P       0.047367
     41 H18         28.7330    23.6890    26.6410 ha         1 70P       0.112500
     42 H19         27.7480    27.4240    28.4840 ha         1 70P       0.112500
     43 H20         27.0500    25.2270    25.6580 h1         1 70P       0.075700
     44 H21         27.0430    28.1170    26.0620 hn         1 70P       0.503000
     45 H22         22.1850    26.9870    28.6340 ha         1 70P       0.167000
     46 O2          21.3950    24.9860    29.2200 o          1 70P      -0.514000
@<TRIPOS>BOND
     1     1     2 ar  
     2     1    15 ar  
     3     1    24 1   
     4     2     3 ar  
     5     2    25 1   
     6     3    13 ar  
     7     3    26 1   
     8     4     7 1   
     9     4     8 1   
    10     5    18 ar  
    11     5    22 ar  
    12     5    27 1   
    13     6     7 1   
    14     6     9 1   
    15     6    23 1   
    16     6    28 1   
    17     7    29 1   
    18     7    30 1   
    19     8    23 1   
    20     8    46 2   
    21     9    10 1   
    22     9    11 1   
    23     9    31 1   
    24    10    32 1   
    25    10    33 1   
    26    10    34 1   
    27    11    35 1   
    28    11    36 1   
    29    11    37 1   
    30    12    16 1   
    31    12    38 1   
    32    12    39 1   
    33    12    40 1   
    34    13    14 ar  
    35    13    41 1   
    36    14    15 ar  
    37    14    16 1   
    38    15    42 1   
    39    16    17 1   
    40    16    43 1   
    41    17    19 1   
    42    17    44 1   
    43    18    19 ar  
    44    19    20 ar  
    45    20    21 ar  
    46    21    22 ar  
    47    21    23 1   
    48    22    45 1   
@<TRIPOS>SUBSTRUCTURE
     1 70P         1 TEMP              0 ****  ****    0 ROOT
