@<TRIPOS>MOLECULE
70P
   46    48     1     0     0
SMALL
No Charge or Current Charge


@<TRIPOS>ATOM
      1 C1          29.0780    25.9140    29.5620 ca         1 70P      -0.108500
      2 C2          29.3960    24.5480    29.6100 ca         1 70P      -0.111000
      3 C3          29.1590    23.7350    28.4910 ca         1 70P      -0.108500
      4 O1          22.0500    22.7510    28.6050 os         1 70P      -0.412100
      5 C11         23.6160    28.2330    27.6940 ca         1 70P       0.160900
      6 C12         24.2780    23.3090    27.9560 c5         1 70P       0.096700
      7 C13         23.2010    22.1850    27.9470 c5         1 70P       0.140600
      8 C14         22.1120    24.1090    28.5320 c          1 70P       0.708100
      9 C15         25.3650    23.1770    29.0710 c3         1 70P      -0.077700
     10 C16         24.8060    23.2240    30.5160 c3         1 70P      -0.088600
     11 C17         26.2620    21.9320    28.8750 c3         1 70P      -0.088600
     12 C18         28.7710    26.7900    25.0620 c3         1 70P      -0.101100
     13 C4          28.5910    24.2850    27.3280 ca         1 70P      -0.104000
     14 C5          28.2630    25.6550    27.2690 ca         1 70P      -0.099300
     15 C6          28.5210    26.4680    28.3960 ca         1 70P      -0.104000
     16 C7          27.6680    26.2310    25.9780 c3         1 70P       0.293800
     17 N1          26.6800    27.2880    26.2420 nu         1 70P      -0.922100
     18 N2          24.8100    28.3230    27.0860 nb         1 70P      -0.262000
     19 C8          25.4530    27.1670    26.8710 ca         1 70P       0.400900
     20 N3          25.0280    25.9360    27.1980 nb         1 70P      -0.301000
     21 C9          23.8340    25.8320    27.8200 ca         1 70P       0.307900
     22 C10         23.0810    26.9960    28.0800 ca         1 70P      -0.295000
     23 N4          23.3980    24.4890    28.1300 n          1 70P      -0.431300
     24 H1          29.2670    26.5470    30.4270 ha         1 70P       0.113500
     25 H2          29.8300    24.1200    30.5120 ha         1 70P       0.114000
     26 H3          29.4110    22.6770    28.5240 ha         1 70P       0.113500
     27 H4          23.0840    29.1650    27.8770 h4         1 70P       0.024100
     28 H5          24.7870    23.3320    26.9820 h1         1 70P       0.089700
     29 H6          22.9170    21.9350    26.9150 h1         1 70P       0.072200
     30 H7          23.5100    21.2620    28.4530 h1         1 70P       0.072200
     31 H8          26.0300    24.0450    28.9760 hc         1 70P       0.085700
     32 H9          25.6230    23.1750    31.2460 hc         1 70P       0.037200
     33 H10         24.2580    24.1560    30.6970 hc         1 70P       0.037200
     34 H11         24.1300    22.3820    30.7070 hc         1 70P       0.037200
     35 H12         27.0920    21.9390    29.5920 hc         1 70P       0.037200
     36 H13         25.6990    21.0040    29.0250 hc         1 70P       0.037200
     37 H14         26.6890    21.9160    27.8650 hc         1 70P       0.037200
     38 H15         29.4960    26.0040    24.8200 hc         1 70P       0.047367
     39 H16         28.3450    27.1600    24.1220 hc         1 70P       0.047367
     40 H17         29.3080    27.6110    25.5520 hc         1 70P       0.047367
     41 H18         28.4110    23.6430    26.4680 ha         1 70P       0.112500
     42 H19         28.2890    27.5300    28.3720 ha         1 70P       0.112500
     43 H20         27.1730    25.4130    25.4330 h1         1 70P       0.075700
     44 H21         26.9520    28.2440    26.0190 hn         1 70P       0.503000
     45 H22         22.1210    26.9810    28.5790 ha         1 70P       0.167000
     46 O2          21.1690    24.8370    28.7930 o          1 70P      -0.514000
@<TRIPOS>BOND
     1     1     2 ar  
     2     1    15 ar  
     3     1    24 1   
     4     2     3 ar  
     5     2    25 1   
     6     3    13 ar  
     7     3    26 1   
     8     4     7 1   
     9     4     8 1   
    10     5    18 ar  
    11     5    22 ar  
    12     5    27 1   
    13     6     7 1   
    14     6     9 1   
    15     6    23 1   
    16     6    28 1   
    17     7    29 1   
    18     7    30 1   
    19     8    23 1   
    20     8    46 2   
    21     9    10 1   
    22     9    11 1   
    23     9    31 1   
    24    10    32 1   
    25    10    33 1   
    26    10    34 1   
    27    11    35 1   
    28    11    36 1   
    29    11    37 1   
    30    12    16 1   
    31    12    38 1   
    32    12    39 1   
    33    12    40 1   
    34    13    14 ar  
    35    13    41 1   
    36    14    15 ar  
    37    14    16 1   
    38    15    42 1   
    39    16    17 1   
    40    16    43 1   
    41    17    19 1   
    42    17    44 1   
    43    18    19 ar  
    44    19    20 ar  
    45    20    21 ar  
    46    21    22 ar  
    47    21    23 1   
    48    22    45 1   
@<TRIPOS>SUBSTRUCTURE
     1 70P         1 TEMP              0 ****  ****    0 ROOT
