@<TRIPOS>MOLECULE
70Q
   55    58     1     0     0
SMALL
No Charge or Current Charge


@<TRIPOS>ATOM
      1 C1           1.6940    -1.7640    -0.1030 cc         1 70Q       0.322900
      2 C2           4.2100    -0.8690     0.9800 c          1 70Q       0.557600
      3 C3           0.3900    -2.0760    -0.8250 c          1 70Q       0.552800
      4 O1          -3.9240     2.9120    -0.3010 o          1 70Q      -0.532500
      5 O2          -6.0500     2.0190    -1.3860 o          1 70Q      -0.532500
      6 O3           5.2590    -0.4060     1.4170 o          1 70Q      -0.525000
      7 C11          2.8790    -3.9480    -0.7870 ca         1 70Q      -0.084000
      8 C12          5.3250    -2.9580     0.1380 ca         1 70Q      -0.054000
      9 C13         -4.6950    -0.7110    -1.6550 ca         1 70Q      -0.046000
     10 C14         -4.0180    -1.8930    -1.9920 ca         1 70Q      -0.104000
     11 C15         -4.5180     1.3040     2.1030 c3         1 70Q       0.168100
     12 C16         -6.5360     0.3880     1.0550 c3         1 70Q       0.168100
     13 C17         -2.6710    -2.0710    -1.6300 ca         1 70Q      -0.084000
     14 C18          2.0820     2.7980     0.1990 ca         1 70Q      -0.083500
     15 C19          4.4130     2.8750     0.8920 ca         1 70Q      -0.083500
     16 C20          4.0460    -4.7220    -0.9060 ca         1 70Q      -0.085000
     17 C21          5.2730    -4.2230    -0.4580 ca         1 70Q      -0.110000
     18 C22          4.6220     3.9900     0.0620 ca         1 70Q      -0.115500
     19 C23          2.2920     3.9130    -0.6310 ca         1 70Q      -0.115500
     20 C24          3.5620     4.5090    -0.7000 ca         1 70Q      -0.096000
     21 N1           1.7200    -0.6270     0.6240 nd         1 70Q      -0.438300
     22 N2           2.9610    -0.2270     1.1300 n          1 70Q      -0.126800
     23 C4           2.9100    -2.6370    -0.2370 ca         1 70Q      -0.096900
     24 C5           4.1540    -2.1780     0.2650 ca         1 70Q      -0.153600
     25 C6          -4.0250     0.3040    -0.9430 ca         1 70Q      -0.273500
     26 N3          -0.6220    -1.1630    -0.5210 ns         1 70Q      -0.133000
     27 N4          -5.5380     1.4800     1.0470 n3         1 70Q      -0.702500
     28 C7          -2.6710     0.1250    -0.5850 ca         1 70Q      -0.076000
     29 C8           2.9100     1.0590     1.8620 c3         1 70Q       0.163300
     30 C9          -1.9830    -1.0560    -0.9270 ca         1 70Q      -0.035000
     31 O4           0.2050    -2.9950    -1.6200 o          1 70Q      -0.576100
     32 C10          3.1410     2.2730     0.9660 ca         1 70Q      -0.126300
     33 H1           1.9610    -4.4140    -1.1240 ha         1 70Q       0.146000
     34 H2           6.2770    -2.5900     0.5170 ha         1 70Q       0.141000
     35 H3          -5.7380    -0.5910    -1.9450 ha         1 70Q       0.137000
     36 H4          -4.5400    -2.6780    -2.5350 ha         1 70Q       0.122000
     37 H5          -4.9960     1.1830     3.0840 h1         1 70Q       0.053700
     38 H6          -3.9020     0.4140     1.9190 h1         1 70Q       0.053700
     39 H7          -3.8550     2.1760     2.1690 h1         1 70Q       0.053700
     40 H8          -6.9880     0.2860     2.0500 h1         1 70Q       0.053700
     41 H9          -7.3500     0.5860     0.3450 h1         1 70Q       0.053700
     42 H10         -6.0770    -0.5750     0.7950 h1         1 70Q       0.053700
     43 H11         -2.1880    -3.0050    -1.8970 ha         1 70Q       0.151000
     44 H12          1.0950     2.3400     0.2440 ha         1 70Q       0.120000
     45 H13          5.2410     2.4780     1.4760 ha         1 70Q       0.120000
     46 H14          3.9940    -5.7180    -1.3420 ha         1 70Q       0.121000
     47 H15          6.1750    -4.8230    -0.5480 ha         1 70Q       0.123000
     48 H16          5.6060     4.4500     0.0080 ha         1 70Q       0.116000
     49 H17          1.4700     4.3130    -1.2210 ha         1 70Q       0.116000
     50 H18          3.7250     5.3720    -1.3430 ha         1 70Q       0.114000
     51 H19         -0.3280    -0.4340     0.1180 hn         1 70Q       0.175000
     52 H20         -2.1480     0.9090    -0.0400 ha         1 70Q       0.134000
     53 H21          1.9280     1.1540     2.3440 h1         1 70Q       0.075700
     54 H22          3.6500     1.0510     2.6730 h1         1 70Q       0.075700
     55 S1          -4.8950     1.8290    -0.5000 sy         1 70Q       1.146600
@<TRIPOS>BOND
     1     1     3 1   
     2     1    21 2   
     3     1    23 1   
     4     2     6 2   
     5     2    22 1   
     6     2    24 1   
     7     3    26 1   
     8     3    31 2   
     9     4    55 2   
    10     5    55 2   
    11     7    16 ar  
    12     7    23 ar  
    13     7    33 1   
    14     8    17 ar  
    15     8    24 ar  
    16     8    34 1   
    17     9    10 ar  
    18     9    25 ar  
    19     9    35 1   
    20    10    13 ar  
    21    10    36 1   
    22    11    27 1   
    23    11    37 1   
    24    11    38 1   
    25    11    39 1   
    26    12    27 1   
    27    12    40 1   
    28    12    41 1   
    29    12    42 1   
    30    13    30 ar  
    31    13    43 1   
    32    14    19 ar  
    33    14    32 ar  
    34    14    44 1   
    35    15    18 ar  
    36    15    32 ar  
    37    15    45 1   
    38    16    17 ar  
    39    16    46 1   
    40    17    47 1   
    41    18    20 ar  
    42    18    48 1   
    43    19    20 ar  
    44    19    49 1   
    45    20    50 1   
    46    21    22 1   
    47    22    29 1   
    48    23    24 ar  
    49    25    28 ar  
    50    25    55 1   
    51    26    30 1   
    52    26    51 1   
    53    27    55 1   
    54    28    30 ar  
    55    28    52 1   
    56    29    32 1   
    57    29    53 1   
    58    29    54 1   
@<TRIPOS>SUBSTRUCTURE
     1 70Q         1 TEMP              0 ****  ****    0 ROOT
