@<TRIPOS>MOLECULE
70Q
   55    58     1     0     0
SMALL
abcg2


@<TRIPOS>ATOM
      1 C1           1.6670    -1.3820    -0.1210 cc         1 70Q       0.322900
      2 C2           4.0590    -0.6890     1.1170 c          1 70Q       0.557600
      3 C3           0.3620    -1.5560    -0.8440 c          1 70Q       0.552800
      4 O1          -4.2480     2.4280     1.1820 o          1 70Q      -0.532500
      5 O2          -6.1170     2.0920    -0.4620 o          1 70Q      -0.532500
      6 O3           5.0870    -0.2800     1.6270 o          1 70Q      -0.525000
      7 C11          2.5600    -3.7100    -0.5520 ca         1 70Q      -0.084000
      8 C12          4.9400    -2.9450     0.6880 ca         1 70Q      -0.054000
      9 C13         -4.5650    -0.1310    -1.7000 ca         1 70Q      -0.046000
     10 C14         -3.7380    -0.9870    -2.4080 ca         1 70Q      -0.104000
     11 C15         -4.9960    -0.1020     2.4750 c3         1 70Q       0.168100
     12 C16         -6.8720    -0.3570     0.9340 c3         1 70Q       0.168100
     13 C17         -2.4270    -1.2210    -2.0170 ca         1 70Q      -0.084000
     14 C18          2.6490     2.8580    -0.5430 ca         1 70Q      -0.083500
     15 C19          4.8020     2.8940     0.5190 ca         1 70Q      -0.083500
     16 C20          3.6010    -4.6040    -0.4130 ca         1 70Q      -0.085000
     17 C21          4.7960    -4.2250     0.2010 ca         1 70Q      -0.110000
     18 C22          5.2730     3.7560    -0.4630 ca         1 70Q      -0.115500
     19 C23          3.1190     3.7150    -1.5270 ca         1 70Q      -0.115500
     20 C24          4.4340     4.1650    -1.4900 ca         1 70Q      -0.096000
     21 N1           1.8200    -0.2270     0.4230 nd         1 70Q      -0.438300
     22 N2           2.9380     0.1090     1.0390 n          1 70Q      -0.126800
     23 C4           2.6920    -2.4000    -0.0690 ca         1 70Q      -0.096900
     24 C5           3.8910    -2.0320     0.5640 ca         1 70Q      -0.153600
     25 C6          -4.0450     0.4960    -0.5750 ca         1 70Q      -0.273500
     26 N3          -0.6140    -0.7260    -0.4110 ns         1 70Q      -0.133000
     27 N4          -5.8540     0.5340     1.4810 n3         1 70Q      -0.702500
     28 C7          -2.7390     0.2860    -0.1660 ca         1 70Q      -0.076000
     29 C8           2.9780     1.4860     1.5360 c3         1 70Q       0.163300
     30 C9          -1.9160    -0.5810    -0.8860 ca         1 70Q      -0.035000
     31 O4           0.2350    -2.3670    -1.7420 o          1 70Q      -0.576100
     32 C10          3.4880     2.4370     0.4870 ca         1 70Q      -0.126300
     33 H1           1.6490    -4.0310    -1.0310 ha         1 70Q       0.146000
     34 H2           5.8570    -2.6420     1.1740 ha         1 70Q       0.141000
     35 H3          -5.5800     0.0460    -2.0290 ha         1 70Q       0.137000
     36 H4          -4.1160    -1.4820    -3.2920 ha         1 70Q       0.122000
     37 H5          -5.6400    -0.5300     3.2410 h1         1 70Q       0.053700
     38 H6          -4.3860    -0.9070     2.0530 h1         1 70Q       0.053700
     39 H7          -4.3480     0.6250     2.9560 h1         1 70Q       0.053700
     40 H8          -7.4510    -0.7460     1.7700 h1         1 70Q       0.053700
     41 H9          -7.5510     0.1820     0.2810 h1         1 70Q       0.053700
     42 H10         -6.4450    -1.2060     0.3910 h1         1 70Q       0.053700
     43 H11         -1.8180    -1.8930    -2.5980 ha         1 70Q       0.151000
     44 H12          1.6200     2.5190    -0.5730 ha         1 70Q       0.120000
     45 H13          5.4600     2.5740     1.3180 ha         1 70Q       0.120000
     46 H14          3.4860    -5.6130    -0.7860 ha         1 70Q       0.121000
     47 H15          5.6030    -4.9380     0.2990 ha         1 70Q       0.123000
     48 H16          6.2960     4.1080    -0.4230 ha         1 70Q       0.116000
     49 H17          2.4570     4.0390    -2.3200 ha         1 70Q       0.116000
     50 H18          4.8010     4.8340    -2.2570 ha         1 70Q       0.114000
     51 H19         -0.3570    -0.1130     0.3510 hn         1 70Q       0.175000
     52 H20         -2.3470     0.7950     0.7060 ha         1 70Q       0.134000
     53 H21          1.9600     1.7350     1.8280 h1         1 70Q       0.075700
     54 H22          3.6000     1.5130     2.4280 h1         1 70Q       0.075700
     55 S1          -5.0950     1.5360     0.4070 sy         1 70Q       1.146600
@<TRIPOS>BOND
     1     1     3 1   
     2     1    21 2   
     3     1    23 1   
     4     2     6 2   
     5     2    22 1   
     6     2    24 1   
     7     3    26 1   
     8     3    31 2   
     9     4    55 2   
    10     5    55 2   
    11     7    16 ar  
    12     7    23 ar  
    13     7    33 1   
    14     8    17 ar  
    15     8    24 ar  
    16     8    34 1   
    17     9    10 ar  
    18     9    25 ar  
    19     9    35 1   
    20    10    13 ar  
    21    10    36 1   
    22    11    27 1   
    23    11    37 1   
    24    11    38 1   
    25    11    39 1   
    26    12    27 1   
    27    12    40 1   
    28    12    41 1   
    29    12    42 1   
    30    13    30 ar  
    31    13    43 1   
    32    14    19 ar  
    33    14    32 ar  
    34    14    44 1   
    35    15    18 ar  
    36    15    32 ar  
    37    15    45 1   
    38    16    17 ar  
    39    16    46 1   
    40    17    47 1   
    41    18    20 ar  
    42    18    48 1   
    43    19    20 ar  
    44    19    49 1   
    45    20    50 1   
    46    21    22 1   
    47    22    29 1   
    48    23    24 ar  
    49    25    28 ar  
    50    25    55 1   
    51    26    30 1   
    52    26    51 1   
    53    27    55 1   
    54    28    30 ar  
    55    28    52 1   
    56    29    32 1   
    57    29    53 1   
    58    29    54 1   
@<TRIPOS>SUBSTRUCTURE
     1 70Q         1 TEMP              0 ****  ****    0 ROOT
