@<TRIPOS>MOLECULE
70R
   93    99     1     0     0
SMALL
No Charge or Current Charge


@<TRIPOS>ATOM
      1 N1          -6.8060    -1.5020    -2.3230 nc         1 70R      -0.533800
      2 N3           0.1880     4.4520    -0.4200 nb         1 70R      -0.263000
      3 C4          -2.2700    -0.5080     1.1060 ca         1 70R       0.133100
      4 C5          -4.6730    -0.9220     0.7380 c3         1 70R       0.239900
      5 C6          -5.6220    -0.8530    -0.4300 cc         1 70R      -0.161300
      6 C7          -6.4670     0.1510    -0.8110 cd         1 70R      -0.149000
      7 C8          -7.1580    -0.2850    -1.9550 cd         1 70R       0.252900
      8 C10         -4.0280    -3.2570    -2.4690 c3         1 70R       0.281000
      9 C13          0.0370    -0.6000     2.7240 ca         1 70R      -0.143000
     10 C15          1.0940     3.4450    -0.4430 ca         1 70R       0.466300
     11 C17          2.8300     5.0450    -0.0430 ca         1 70R       0.177300
     12 C20          4.8170     3.5290     0.0550 cc         1 70R      -0.166200
     13 C21          6.1260     2.9270     0.0960 cc         1 70R       0.241800
     14 C22          7.2980     3.5900     0.3700 cd         1 70R      -0.178000
     15 C24          7.7280     1.4590    -0.0450 cc         1 70R       0.345200
     16 C26          3.7850     0.5230     0.7830 ca         1 70R      -0.006300
     17 C28          3.6130    -0.8750     0.6220 ca         1 70R       0.060000
     18 C1          -0.6580     1.8080    -1.0850 c3         1 70R       0.031300
     19 O1          -3.3830    -0.4840     0.2890 os         1 70R      -0.320100
     20 S1           4.5660     5.2850     0.2570 ss         1 70R      -0.139900
     21 C2          -0.8570     0.2810    -0.9030 c3         1 70R      -0.018100
     22 N2          -5.8460    -1.8470    -1.3890 na         1 70R       0.097800
     23 O2           0.6650     2.1390    -0.5670 os         1 70R      -0.435300
     24 C3          -1.0130    -0.1470     0.5620 ca         1 70R      -0.089300
     25 O3           6.3720     1.6000    -0.1790 os         1 70R      -0.228000
     26 N4           1.9450     6.0550    -0.0220 nb         1 70R      -0.217000
     27 N5           0.6550    -4.7220    -0.2750 n3         1 70R      -0.719600
     28 N6          -2.0160    -5.1860     1.0040 n3         1 70R      -0.716600
     29 C9          -5.2000    -3.1730    -1.4690 c3         1 70R       0.025600
     30 C11         -2.3580    -0.9050     2.4620 ca         1 70R      -0.211000
     31 C12         -1.2070    -0.9500     3.2650 ca         1 70R      -0.097000
     32 C14          0.1300    -0.2000     1.3820 ca         1 70R      -0.063000
     33 C16          0.6590     5.7020    -0.2240 ca         1 70R       0.184900
     34 C18          2.4660     3.7310    -0.2610 ca         1 70R      -0.211800
     35 C19          3.6320     2.8520    -0.2250 cd         1 70R       0.103600
     36 C23          8.3360     2.6350     0.2840 cd         1 70R      -0.224000
     37 C25          3.4890     1.3860    -0.3070 ca         1 70R      -0.066800
     38 C29          3.1310    -1.4070    -0.5940 ca         1 70R       0.156100
     39 C30          2.2410    -3.3760    -1.8080 c3         1 70R       0.166600
     40 C31          1.6570    -4.7510    -1.3810 c3         1 70R       0.171800
     41 C32         -0.5220    -3.8350    -0.5430 c6         1 70R       0.173800
     42 C33         -1.5440    -3.8180     0.6360 c6         1 70R       0.157300
     43 C34         -2.9990    -5.1670     2.1060 c3         1 70R       0.152100
     44 C35         -0.8400    -6.0640     1.2880 c6         1 70R       0.157300
     45 C36          0.1830    -6.0890     0.1060 c6         1 70R       0.173800
     46 C37          2.8630    -0.5420    -1.6730 ca         1 70R      -0.200000
     47 C38          3.0380     0.8400    -1.5230 ca         1 70R      -0.012000
     48 C39         -0.8530     2.2200    -2.5860 c          1 70R       0.715000
     49 F1          -3.0630    -2.3560    -2.1770 f          1 70R      -0.111667
     50 F2          -3.4690    -4.4870    -2.4360 f          1 70R      -0.111667
     51 F3          -4.4420    -3.0280    -3.7370 f          1 70R      -0.111667
     52 F4           8.2860     0.2560    -0.2440 f          1 70R      -0.201200
     53 H1          -5.0420    -0.2730     1.5430 h1         1 70R       0.034200
     54 H2          -4.6270    -1.9500     1.1180 h1         1 70R       0.034200
     55 H3          -6.5930     1.1110    -0.3220 ha         1 70R       0.211000
     56 H4          -7.9100     0.2480    -2.5240 h4         1 70R       0.043100
     57 H5           0.9300    -0.6360     3.3420 ha         1 70R       0.114000
     58 H6           7.4020     4.6430     0.6100 ha         1 70R       0.144000
     59 H7          -1.4380     2.3220    -0.5090 h1         1 70R       0.065700
     60 H8          -1.7270    -0.0300    -1.4910 hc         1 70R       0.069200
     61 H9          -0.0070    -0.2420    -1.3570 hc         1 70R       0.069200
     62 H13         -5.9600    -3.9080    -1.7580 h1         1 70R       0.090200
     63 H14         -4.8380    -3.4590    -0.4750 h1         1 70R       0.090200
     64 H15         -3.3060    -1.1860     2.9100 ha         1 70R       0.101000
     65 H16         -1.2800    -1.2600     4.3050 ha         1 70R       0.097000
     66 H17          1.0950     0.0750     0.9750 ha         1 70R       0.132000
     67 H18         -0.0760     6.5050    -0.2100 h5         1 70R       0.039100
     68 H19          9.3980     2.7900     0.4420 ha         1 70R       0.148000
     69 H20          5.2640     0.8860     2.3450 hc         1 70R       0.047033
     70 H21          4.0350     2.1550     2.2470 hc         1 70R       0.047033
     71 H22          3.6260     0.6140     2.9590 hc         1 70R       0.047033
     72 H23          1.4170    -2.7560    -2.1810 h1         1 70R       0.043200
     73 H24          2.9590    -3.5140    -2.6260 h1         1 70R       0.043200
     74 H25          2.5000    -5.3940    -1.0920 h1         1 70R       0.038200
     75 H26          1.2040    -5.2090    -2.2710 h1         1 70R       0.038200
     76 H27         -0.1970    -2.7990    -0.7140 h1         1 70R       0.033450
     77 H28         -1.0390    -4.1660    -1.4550 h1         1 70R       0.033450
     78 H29         -2.3980    -3.1890     0.3500 h1         1 70R       0.043700
     79 H30         -1.0650    -3.3380     1.5020 h1         1 70R       0.043700
     80 H31         -3.8660    -4.5490     1.8380 h1         1 70R       0.027700
     81 H32         -3.3590    -6.1820     2.3210 h1         1 70R       0.027700
     82 H33         -2.5530    -4.7560     3.0220 h1         1 70R       0.027700
     83 H34         -0.3180    -5.7170     2.1930 h1         1 70R       0.043700
     84 H35         -1.1730    -7.0940     1.4850 h1         1 70R       0.043700
     85 H36         -0.2940    -6.5750    -0.7580 h1         1 70R       0.033450
     86 H37          1.0380    -6.7170     0.3960 h1         1 70R       0.033450
     87 H38          2.5080    -0.9140    -2.6290 ha         1 70R       0.124000
     88 H39          2.8140     1.5010    -2.3590 ha         1 70R       0.159000
     89 O5          -1.9970     2.2730    -3.0180 o          1 70R      -0.710500
     90 O6           0.1220     2.5380    -3.2570 o          1 70R      -0.710500
     91 C27          4.2020     1.0770     2.1510 c3         1 70R      -0.048800
     92 O4           2.8810    -2.7650    -0.6690 os         1 70R      -0.332100
     93 Cl1          3.9470    -1.9780     1.9700 cl         1 70R      -0.216000
@<TRIPOS>BOND
     1     1     7 2   
     2     1    22 1   
     3     2    10 ar  
     4     2    33 ar  
     5     3    19 1   
     6     3    24 ar  
     7     3    30 ar  
     8     4     5 1   
     9     4    19 1   
    10     4    53 1   
    11     4    54 1   
    12     5     6 2   
    13     5    22 1   
    14     6     7 1   
    15     6    55 1   
    16     7    56 1   
    17     8    29 1   
    18     8    49 1   
    19     8    50 1   
    20     8    51 1   
    21     9    31 ar  
    22     9    32 ar  
    23     9    57 1   
    24    10    23 1   
    25    10    34 ar  
    26    11    20 1   
    27    11    26 ar  
    28    11    34 ar  
    29    12    13 1   
    30    12    20 1   
    31    12    35 2   
    32    13    14 2   
    33    13    25 1   
    34    14    36 1   
    35    14    58 1   
    36    15    25 1   
    37    15    36 2   
    38    15    52 1   
    39    16    17 ar  
    40    16    37 ar  
    41    16    91 1   
    42    17    38 ar  
    43    17    93 1   
    44    18    21 1   
    45    18    23 1   
    46    18    48 1   
    47    18    59 1   
    48    21    24 1   
    49    21    60 1   
    50    21    61 1   
    51    22    29 1   
    52    24    32 ar  
    53    26    33 ar  
    54    27    40 1   
    55    27    41 1   
    56    27    45 1   
    57    28    42 1   
    58    28    43 1   
    59    28    44 1   
    60    29    62 1   
    61    29    63 1   
    62    30    31 ar  
    63    30    64 1   
    64    31    65 1   
    65    32    66 1   
    66    33    67 1   
    67    34    35 1   
    68    35    37 1   
    69    36    68 1   
    70    37    47 ar  
    71    38    46 ar  
    72    38    92 1   
    73    39    40 1   
    74    39    72 1   
    75    39    73 1   
    76    39    92 1   
    77    40    74 1   
    78    40    75 1   
    79    41    42 1   
    80    41    76 1   
    81    41    77 1   
    82    42    78 1   
    83    42    79 1   
    84    43    80 1   
    85    43    81 1   
    86    43    82 1   
    87    44    45 1   
    88    44    83 1   
    89    44    84 1   
    90    45    85 1   
    91    45    86 1   
    92    46    47 ar  
    93    46    87 1   
    94    47    88 1   
    95    48    89 1   
    96    48    90 1   
    97    69    91 1   
    98    70    91 1   
    99    71    91 1   
@<TRIPOS>SUBSTRUCTURE
     1 70R         1 TEMP              0 ****  ****    0 ROOT
