@<TRIPOS>MOLECULE
70R
   93    99     1     0     0
SMALL
abcg2


@<TRIPOS>ATOM
      1 N1          -7.1670     0.6080    -1.7920 nc         1 70R      -0.533800
      2 N3          -0.5010     3.7710    -0.6010 nb         1 70R      -0.263000
      3 C4          -2.1320    -1.0610     0.6370 ca         1 70R       0.133100
      4 C5          -4.4600    -0.7030     0.2840 c3         1 70R       0.239900
      5 C6          -5.2900    -0.0870    -0.7920 cc         1 70R      -0.161300
      6 C7          -4.9190     0.5370    -1.9590 cd         1 70R      -0.149000
      7 C8          -6.1350     0.9450    -2.5360 cd         1 70R       0.252900
      8 C10         -8.0640    -1.9090    -0.1380 c3         1 70R       0.281000
      9 C13          0.0630    -1.7420     2.1990 ca         1 70R      -0.143000
     10 C15          0.5260     2.9500    -0.4960 ca         1 70R       0.466300
     11 C17          1.8660     4.8170     0.0250 ca         1 70R       0.177300
     12 C20          4.0580     3.6920     0.2890 cc         1 70R      -0.166200
     13 C21          5.4600     3.4770     0.5280 cc         1 70R       0.241800
     14 C22          6.4130     4.2290     1.1420 cd         1 70R      -0.178000
     15 C24          7.2990     2.3580     0.4340 cc         1 70R       0.345200
     16 C26          3.6350     0.4990     0.8560 ca         1 70R      -0.006300
     17 C28          3.7950    -0.8570     0.5860 ca         1 70R       0.060000
     18 C1          -0.7530     1.1560    -1.3530 c3         1 70R       0.031300
     19 O1          -3.1400    -0.6980    -0.1890 os         1 70R      -0.320100
     20 S1           3.4710     5.3320     0.4050 ss         1 70R      -0.139900
     21 C2          -0.6420    -0.3640    -1.2760 c3         1 70R      -0.018100
     22 N2          -6.6410    -0.0160    -0.7330 na         1 70R       0.097800
     23 O2           0.3720     1.6570    -0.6280 os         1 70R      -0.435300
     24 C3          -0.8420    -0.9040     0.1110 ca         1 70R      -0.089300
     25 O3           6.0220     2.3150     0.0870 os         1 70R      -0.228000
     26 N4           0.8380     5.6540    -0.0670 nb         1 70R      -0.217000
     27 N5           1.7610    -4.8590    -0.5810 n3         1 70R      -0.719600
     28 N6          -0.6030    -5.8860     0.6480 n3         1 70R      -0.716600
     29 C9          -7.5090    -0.5600     0.2720 c3         1 70R       0.025600
     30 C11         -2.3220    -1.5630     1.9190 ca         1 70R      -0.211000
     31 C12         -1.2180    -1.9030     2.6950 ca         1 70R      -0.097000
     32 C14          0.2360    -1.2480     0.9110 ca         1 70R      -0.063000
     33 C16         -0.2980     5.0690    -0.3870 ca         1 70R       0.184900
     34 C18          1.8120     3.4410    -0.1790 ca         1 70R      -0.211800
     35 C19          3.0810     2.7890    -0.0260 cd         1 70R       0.103600
     36 C23          7.6340     3.4920     1.0810 cd         1 70R      -0.224000
     37 C25          3.2910     1.3390    -0.2100 ca         1 70R      -0.066800
     38 C29          3.6120    -1.4060    -0.6870 ca         1 70R       0.156100
     39 C30          3.2040    -3.3980    -1.9290 c3         1 70R       0.166600
     40 C31          2.8730    -4.8130    -1.5040 c3         1 70R       0.171800
     41 C32          0.4780    -4.7940    -1.2490 c6         1 70R       0.173800
     42 C33         -0.6560    -4.7420    -0.2440 c6         1 70R       0.157300
     43 C34         -1.6950    -5.8660     1.5930 c3         1 70R       0.152100
     44 C35          0.6800    -5.9220     1.3220 c6         1 70R       0.157300
     45 C36          1.8110    -5.9930     0.3150 c6         1 70R       0.173800
     46 C37          3.2820    -0.5460    -1.7300 ca         1 70R      -0.200000
     47 C38          3.1140     0.8030    -1.4790 ca         1 70R      -0.012000
     48 C39         -0.7360     1.6440    -2.8190 c          1 70R       0.715000
     49 F1          -7.0900    -2.7860    -0.4130 f          1 70R      -0.111667
     50 F2          -8.8060    -2.4260     0.8460 f          1 70R      -0.111667
     51 F3          -8.8350    -1.8330    -1.2260 f          1 70R      -0.111667
     52 F4           7.9990     1.3050     0.0920 f          1 70R      -0.201200
     53 H1          -4.5500    -0.1210     1.2110 h1         1 70R       0.034200
     54 H2          -4.7970    -1.7220     0.5100 h1         1 70R       0.034200
     55 H3          -3.9210     0.6930    -2.3400 ha         1 70R       0.211000
     56 H4          -6.2860     1.4770    -3.4630 h4         1 70R       0.043100
     57 H5           0.9260    -2.0120     2.7930 ha         1 70R       0.114000
     58 H6           6.2710     5.1940     1.6030 ha         1 70R       0.144000
     59 H7          -1.6790     1.4900    -0.8780 h1         1 70R       0.065700
     60 H8          -1.3770    -0.7850    -1.9630 hc         1 70R       0.069200
     61 H9           0.3450    -0.6580    -1.6430 hc         1 70R       0.069200
     62 H13         -8.3330     0.1310     0.4470 h1         1 70R       0.090200
     63 H14         -6.9670    -0.6680     1.2110 h1         1 70R       0.090200
     64 H15         -3.3140    -1.7040     2.3260 ha         1 70R       0.101000
     65 H16         -1.3770    -2.2960     3.6910 ha         1 70R       0.097000
     66 H17          1.2340    -1.1290     0.5140 ha         1 70R       0.132000
     67 H18         -1.1660     5.7110    -0.4830 h5         1 70R       0.039100
     68 H19          8.6010     3.7670     1.4670 ha         1 70R       0.148000
     69 H20          4.8140     0.8730     2.6160 hc         1 70R       0.047033
     70 H21          3.5380     2.0550     2.3440 hc         1 70R       0.047033
     71 H22          3.1450     0.4510     2.9450 hc         1 70R       0.047033
     72 H23          2.3030    -2.8870    -2.2790 h1         1 70R       0.043200
     73 H24          3.9210    -3.4060    -2.7560 h1         1 70R       0.043200
     74 H25          3.7540    -5.2490    -1.0270 h1         1 70R       0.038200
     75 H26          2.6910    -5.4100    -2.4130 h1         1 70R       0.038200
     76 H27          0.4280    -3.8960    -1.8710 h1         1 70R       0.033450
     77 H28          0.3320    -5.6570    -1.9240 h1         1 70R       0.033450
     78 H29         -1.6080    -4.7520    -0.7820 h1         1 70R       0.043700
     79 H30         -0.6050    -3.7930     0.3110 h1         1 70R       0.043700
     80 H31         -2.6490    -5.8660     1.0630 h1         1 70R       0.027700
     81 H32         -1.6630    -6.7570     2.2230 h1         1 70R       0.027700
     82 H33         -1.6790    -4.9840     2.2510 h1         1 70R       0.027700
     83 H34          0.8250    -5.0350     1.9640 h1         1 70R       0.043700
     84 H35          0.7210    -6.8020     1.9700 h1         1 70R       0.043700
     85 H36          1.7520    -6.9550    -0.2250 h1         1 70R       0.033450
     86 H37          2.7640    -5.9820     0.8490 h1         1 70R       0.033450
     87 H38          3.1430    -0.9190    -2.7350 ha         1 70R       0.124000
     88 H39          2.8170     1.4500    -2.2940 ha         1 70R       0.159000
     89 O5          -1.7660     1.3630    -3.4630 o          1 70R      -0.710500
     90 O6           0.2780     2.2350    -3.2230 o          1 70R      -0.710500
     91 C27          3.7900     1.0020     2.2600 c3         1 70R      -0.048800
     92 O4           3.7580    -2.7280    -0.8050 os         1 70R      -0.332100
     93 CL1          4.1650    -1.9510     1.8780 cl         1 70R      -0.216000
@<TRIPOS>BOND
     1     1     7 2   
     2     1    22 1   
     3     2    10 ar  
     4     2    33 ar  
     5     3    19 1   
     6     3    24 ar  
     7     3    30 ar  
     8     4     5 1   
     9     4    19 1   
    10     4    53 1   
    11     4    54 1   
    12     5     6 2   
    13     5    22 1   
    14     6     7 1   
    15     6    55 1   
    16     7    56 1   
    17     8    29 1   
    18     8    49 1   
    19     8    50 1   
    20     8    51 1   
    21     9    31 ar  
    22     9    32 ar  
    23     9    57 1   
    24    10    23 1   
    25    10    34 ar  
    26    11    20 1   
    27    11    26 ar  
    28    11    34 ar  
    29    12    13 1   
    30    12    20 1   
    31    12    35 2   
    32    13    14 2   
    33    13    25 1   
    34    14    36 1   
    35    14    58 1   
    36    15    25 1   
    37    15    36 2   
    38    15    52 1   
    39    16    17 ar  
    40    16    37 ar  
    41    16    91 1   
    42    17    38 ar  
    43    17    93 1   
    44    18    21 1   
    45    18    23 1   
    46    18    48 1   
    47    18    59 1   
    48    21    24 1   
    49    21    60 1   
    50    21    61 1   
    51    22    29 1   
    52    24    32 ar  
    53    26    33 ar  
    54    27    40 1   
    55    27    41 1   
    56    27    45 1   
    57    28    42 1   
    58    28    43 1   
    59    28    44 1   
    60    29    62 1   
    61    29    63 1   
    62    30    31 ar  
    63    30    64 1   
    64    31    65 1   
    65    32    66 1   
    66    33    67 1   
    67    34    35 1   
    68    35    37 1   
    69    36    68 1   
    70    37    47 ar  
    71    38    46 ar  
    72    38    92 1   
    73    39    40 1   
    74    39    72 1   
    75    39    73 1   
    76    39    92 1   
    77    40    74 1   
    78    40    75 1   
    79    41    42 1   
    80    41    76 1   
    81    41    77 1   
    82    42    78 1   
    83    42    79 1   
    84    43    80 1   
    85    43    81 1   
    86    43    82 1   
    87    44    45 1   
    88    44    83 1   
    89    44    84 1   
    90    45    85 1   
    91    45    86 1   
    92    46    47 ar  
    93    46    87 1   
    94    47    88 1   
    95    48    89 1   
    96    48    90 1   
    97    69    91 1   
    98    70    91 1   
    99    71    91 1   
@<TRIPOS>SUBSTRUCTURE
     1 70R         1 TEMP              0 ****  ****    0 ROOT
