@<TRIPOS>MOLECULE
70S
   17    18     1     0     0
SMALL
abcg2


@<TRIPOS>ATOM
      1 N16         -3.1910     0.5870    -0.1160 nv         1 70S      -1.063000
      2 C2          -1.8530     0.2280    -0.0290 ca         1 70S       0.260000
      3 C3          -0.8430     1.1600    -0.0090 ca         1 70S      -0.147000
      4 C4           0.4950     0.7040     0.0070 ca         1 70S      -0.101000
      5 C14          1.7450     1.3140     0.0230 cc         1 70S      -0.222100
      6 N13          2.6360     0.3110     0.0380 na         1 70S       0.013500
      7 N12          2.1180    -0.9030     0.0340 nc         1 70S      -0.277400
      8 C5           0.7970    -0.6860     0.0140 ca         1 70S      -0.097000
      9 C6          -0.2530    -1.6320     0.0020 ca         1 70S      -0.050000
     10 C1          -1.5350    -1.1710    -0.0220 ca         1 70S      -0.134000
     11 H1          -3.8320    -0.0640     0.3090 hn         1 70S       0.438000
     12 H2          -3.3960     1.5300     0.1760 hn         1 70S       0.438000
     13 H3          -1.0660     2.2210    -0.0080 ha         1 70S       0.114000
     14 H4           2.0490     2.3470     0.0240 h4         1 70S       0.225000
     15 H5           3.6390     0.4170     0.0490 hn         1 70S       0.368000
     16 H6          -0.0470    -2.6950     0.0100 ha         1 70S       0.125000
     17 H7          -2.3540    -1.8810    -0.0380 ha         1 70S       0.111000
@<TRIPOS>BOND
     1     1     2 1   
     2     1    11 1   
     3     1    12 1   
     4     2     3 ar  
     5     2    10 ar  
     6     3     4 ar  
     7     3    13 1   
     8     4     5 2   
     9     4     8 ar  
    10     5     6 1   
    11     5    14 1   
    12     6     7 1   
    13     6    15 1   
    14     7     8 2   
    15     8     9 ar  
    16     9    10 ar  
    17     9    16 1   
    18    10    17 1   
@<TRIPOS>SUBSTRUCTURE
     1 70S         1 TEMP              0 ****  ****    0 ROOT
