@<TRIPOS>MOLECULE
70S
   17    18     1     0     0
SMALL
No Charge or Current Charge


@<TRIPOS>ATOM
      1 N16         -3.1780     0.6220     0.0110 nv         1 70S      -1.063000
      2 C2          -1.8760     0.1930     0.0110 ca         1 70S       0.260000
      3 C3          -0.8260     1.1320     0.0160 ca         1 70S      -0.147000
      4 C4           0.4870     0.6450     0.0160 ca         1 70S      -0.101000
      5 C14          1.7290     1.3300     0.0210 cc         1 70S      -0.222100
      6 N13          2.7100     0.3400     0.0190 na         1 70S       0.013500
      7 N12          2.1620    -0.9510     0.0140 nc         1 70S      -0.277400
      8 C5           0.7890    -0.6940     0.0120 ca         1 70S      -0.097000
      9 C6          -0.2460    -1.6430     0.0070 ca         1 70S      -0.050000
     10 C1          -1.5840    -1.1890     0.0060 ca         1 70S      -0.134000
     11 H1          -3.9380    -0.0470     0.1280 hn         1 70S       0.438000
     12 H2          -3.3920     1.6100     0.1330 hn         1 70S       0.438000
     13 H3          -1.0240     2.2000     0.0190 ha         1 70S       0.114000
     14 H4           1.9900     2.3830     0.0250 h4         1 70S       0.225000
     15 H5           3.7180     0.4790     0.0210 hn         1 70S       0.368000
     16 H6          -0.0220    -2.7070     0.0030 ha         1 70S       0.125000
     17 H7          -2.3920    -1.9150     0.0020 ha         1 70S       0.111000
@<TRIPOS>BOND
     1     1     2 1   
     2     1    11 1   
     3     1    12 1   
     4     2     3 ar  
     5     2    10 ar  
     6     3     4 ar  
     7     3    13 1   
     8     4     5 2   
     9     4     8 ar  
    10     5     6 1   
    11     5    14 1   
    12     6     7 1   
    13     6    15 1   
    14     7     8 2   
    15     8     9 ar  
    16     9    10 ar  
    17     9    16 1   
    18    10    17 1   
@<TRIPOS>SUBSTRUCTURE
     1 70S         1 TEMP              0 ****  ****    0 ROOT
