@<TRIPOS>MOLECULE
70T
   21    22     1     0     0
SMALL
bcc


@<TRIPOS>ATOM
      1 C6          -2.0050    -1.2900    -0.0300 cc         1 70T      -0.167200
      2 C5          -0.7740    -0.5640    -0.0060 ca         1 70T      -0.120800
      3 C4          -1.1120     0.8110     0.0440 ca         1 70T      -0.012200
      4 C2          -3.0130    -0.3700     0.0060 cd         1 70T      -0.056300
      5 C7          -0.1440     1.8130     0.0760 ca         1 70T      -0.157000
      6 C8           1.1780     1.4330     0.0590 ca         1 70T      -0.055000
      7 C9           1.5160     0.0700     0.0110 ca         1 70T      -0.216200
      8 C10          0.5640    -0.9360    -0.0220 ca         1 70T       0.004000
      9 C1          -4.4850    -0.5660     0.0020 c3         1 70T      -0.041900
     10 N3          -2.4650     0.8900     0.0500 na         1 70T      -0.165400
     11 N11          2.9140    -0.2970    -0.0050 no         1 70T       0.318200
     12 O12          3.7430     0.5860     0.0180 o          1 70T      -0.219500
     13 O13          3.2010    -1.4740    -0.0430 o          1 70T      -0.219500
     14 H1          -2.1290    -2.3600    -0.0680 ha         1 70T       0.163000
     15 H2          -0.4150     2.8600     0.1130 ha         1 70T       0.144000
     16 H3           1.9480     2.1890     0.0830 ha         1 70T       0.167000
     17 H4           0.8450    -1.9800    -0.0600 ha         1 70T       0.171000
     18 H5          -4.9400    -0.1860     0.9190 hc         1 70T       0.054033
     19 H6          -4.9520    -0.0450    -0.8350 hc         1 70T       0.054033
     20 H7          -4.7240    -1.6240    -0.0820 hc         1 70T       0.054033
     21 H8          -2.9970     1.7460     0.0830 hn         1 70T       0.303700
@<TRIPOS>BOND
     1     1     2 1   
     2     1     4 2   
     3     1    14 1   
     4     2     3 ar  
     5     2     8 ar  
     6     3     5 ar  
     7     3    10 1   
     8     4     9 1   
     9     4    10 1   
    10     5     6 ar  
    11     5    15 1   
    12     6     7 ar  
    13     6    16 1   
    14     7     8 ar  
    15     7    11 1   
    16     8    17 1   
    17     9    18 1   
    18     9    19 1   
    19     9    20 1   
    20    10    21 1   
    21    11    12 1   
    22    11    13 1   
@<TRIPOS>SUBSTRUCTURE
     1 70T         1 TEMP              0 ****  ****    0 ROOT
