@<TRIPOS>MOLECULE
70T
   21    22     1     0     0
SMALL
No Charge or Current Charge


@<TRIPOS>ATOM
      1 C6          -2.0010    -1.2530    -0.0320 cc         1 70T      -0.217200
      2 C5          -0.7840    -0.4990    -0.0060 ca         1 70T      -0.120800
      3 C4          -1.1300     0.8200     0.0460 ca         1 70T      -0.012200
      4 C2          -3.0450    -0.3390     0.0070 cd         1 70T      -0.056300
      5 C7          -0.1560     1.8240     0.0820 ca         1 70T      -0.139000
      6 C8           1.2030     1.4410     0.0630 ca         1 70T      -0.037000
      7 C9           1.5670     0.0640     0.0090 ca         1 70T      -0.216200
      8 C10          0.5500    -0.9260    -0.0260 ca         1 70T       0.022000
      9 C1          -4.5250    -0.6130     0.0000 c3         1 70T      -0.041900
     10 N3          -2.5080     0.9690     0.0560 na         1 70T      -0.215700
     11 N11          3.0070    -0.3400    -0.0100 no         1 70T       0.698200
     12 O12          3.8660     0.5510     0.0220 o          1 70T      -0.409500
     13 O13          3.2750    -1.5480    -0.0570 o          1 70T      -0.409500
     14 H1          -2.1080    -2.3350    -0.0730 ha         1 70T       0.213000
     15 H2          -0.4360     2.8740     0.1230 ha         1 70T       0.126000
     16 H3           1.9660     2.2170     0.0910 ha         1 70T       0.149000
     17 H4           0.7820    -1.9890    -0.0680 ha         1 70T       0.153000
     18 H5          -5.0030    -0.2170     0.9040 hc         1 70T       0.054033
     19 H6          -5.0070    -0.1480    -0.8680 hc         1 70T       0.054033
     20 H7          -4.7290    -1.6890    -0.0410 hc         1 70T       0.054033
     21 H8          -3.0270     1.8400     0.0900 hn         1 70T       0.354000
@<TRIPOS>BOND
     1     1     2 1   
     2     1     4 2   
     3     1    14 1   
     4     2     3 ar  
     5     2     8 ar  
     6     3     5 ar  
     7     3    10 1   
     8     4     9 1   
     9     4    10 1   
    10     5     6 ar  
    11     5    15 1   
    12     6     7 ar  
    13     6    16 1   
    14     7     8 ar  
    15     7    11 1   
    16     8    17 1   
    17     9    18 1   
    18     9    19 1   
    19     9    20 1   
    20    10    21 1   
    21    11    12 1   
    22    11    13 1   
@<TRIPOS>SUBSTRUCTURE
     1 70T         1 TEMP              0 ****  ****    0 ROOT
