@<TRIPOS>MOLECULE
70V
   19    19     1     0     0
SMALL
No Charge or Current Charge


@<TRIPOS>ATOM
      1 C1           0.0220    -1.6260    -1.4300 c3         1 70V      -0.077100
      2 C2           0.0260    -1.0460     0.0200 c6         1 70V      -0.283700
      3 C3          -1.2250    -0.2150     0.2840 c          1 70V       0.584600
      4 C4          -1.2730     1.1670    -0.3850 c6         1 70V      -0.184400
      5 C5           0.0150     1.9910    -0.1180 c6         1 70V      -0.062400
      6 C6           1.3060     1.1770    -0.3970 c6         1 70V      -0.184400
      7 C7           1.2730    -0.2060     0.2730 c          1 70V       0.584600
      8 O8          -2.1040    -0.5970     1.0430 o          1 70V      -0.505600
      9 O9           2.1620    -0.5820     1.0240 o          1 70V      -0.505600
     10 H1           0.9070    -2.2510    -1.6050 hc         1 70V       0.046033
     11 H2          -0.8600    -2.2570    -1.5980 hc         1 70V       0.046033
     12 H3           0.0160    -0.8440    -2.1980 hc         1 70V       0.046033
     13 H4           0.0320    -1.8980     0.7110 hc         1 70V       0.100700
     14 H5          -1.2930     0.9970    -1.4690 hc         1 70V       0.071200
     15 H6          -2.1820     1.7070    -0.0880 hc         1 70V       0.071200
     16 H7           0.0090     2.9070    -0.7260 hc         1 70V       0.054200
     17 H8           0.0180     2.3200     0.9310 hc         1 70V       0.054200
     18 H9           1.3170     1.0070    -1.4810 hc         1 70V       0.071200
     19 H10          2.2130     1.7230    -0.1070 hc         1 70V       0.071200
@<TRIPOS>BOND
     1     1     2 1   
     2     1    10 1   
     3     1    11 1   
     4     1    12 1   
     5     2     3 1   
     6     2     7 1   
     7     2    13 1   
     8     3     4 1   
     9     3     8 2   
    10     4     5 1   
    11     4    14 1   
    12     4    15 1   
    13     5     6 1   
    14     5    16 1   
    15     5    17 1   
    16     6     7 1   
    17     6    18 1   
    18     6    19 1   
    19     7     9 2   
@<TRIPOS>SUBSTRUCTURE
     1 70V         1 TEMP              0 ****  ****    0 ROOT
