@<TRIPOS>MOLECULE
70V
   19    19     1     0     0
SMALL
abcg2


@<TRIPOS>ATOM
      1 C1           0.0250    -1.6500    -1.3520 c3         1 70V      -0.077100
      2 C2           0.0260    -0.9940     0.0450 c6         1 70V      -0.283700
      3 C3          -1.2490    -0.1860     0.2080 c          1 70V       0.584600
      4 C4          -1.2500     1.1870    -0.4090 c6         1 70V      -0.184400
      5 C5           0.0170     1.9600    -0.0520 c6         1 70V      -0.062400
      6 C6           1.2820     1.1920    -0.4280 c6         1 70V      -0.184400
      7 C7           1.2940    -0.1740     0.2020 c          1 70V       0.584600
      8 O8          -2.2060    -0.6540     0.7780 o          1 70V      -0.505600
      9 O9           2.2530    -0.6280     0.7810 o          1 70V      -0.505600
     10 H1           0.9090    -2.2740    -1.4690 hc         1 70V       0.046033
     11 H2          -0.8520    -2.2880    -1.4600 hc         1 70V       0.046033
     12 H3           0.0150    -0.9190    -2.1600 hc         1 70V       0.046033
     13 H4           0.0310    -1.7900     0.7940 hc         1 70V       0.100700
     14 H5          -1.3110     1.0670    -1.4970 hc         1 70V       0.071200
     15 H6          -2.1440     1.7250    -0.0960 hc         1 70V       0.071200
     16 H7           0.0120     2.9200    -0.5680 hc         1 70V       0.054200
     17 H8           0.0250     2.1780     1.0190 hc         1 70V       0.054200
     18 H9           1.3210     1.0650    -1.5160 hc         1 70V       0.071200
     19 H10          2.1800     1.7360    -0.1360 hc         1 70V       0.071200
@<TRIPOS>BOND
     1     1     2 1   
     2     1    10 1   
     3     1    11 1   
     4     1    12 1   
     5     2     3 1   
     6     2     7 1   
     7     2    13 1   
     8     3     4 1   
     9     3     8 2   
    10     4     5 1   
    11     4    14 1   
    12     4    15 1   
    13     5     6 1   
    14     5    16 1   
    15     5    17 1   
    16     6     7 1   
    17     6    18 1   
    18     6    19 1   
    19     7     9 2   
@<TRIPOS>SUBSTRUCTURE
     1 70V         1 TEMP              0 ****  ****    0 ROOT
