@<TRIPOS>MOLECULE
70W
   34    34     1     0     0
SMALL
abcg2


@<TRIPOS>ATOM
      1 C1           2.7160     0.2570    -0.2550 c3         1 70W       0.224000
      2 C2           3.1850     1.6960    -0.0770 c3         1 70W      -0.108100
      3 C3           2.7390    -0.1120    -1.7340 c3         1 70W      -0.108100
      4 C4           3.5900    -0.6740     0.5770 c3         1 70W      -0.108100
      5 C6           0.5690    -0.7730     0.3010 c          1 70W       0.651100
      6 C9          -1.7100    -1.4500     0.7930 c6         1 70W       0.104000
      7 C10         -2.6960    -1.0500    -0.2990 c6         1 70W      -0.122900
      8 C11         -3.2170     0.3690    -0.0890 c6         1 70W       0.156500
      9 C12         -2.0450     1.3380     0.0940 c6         1 70W      -0.122900
     10 C13         -1.0870     0.8570     1.1770 c6         1 70W       0.104000
     11 O5           1.3590     0.2960     0.2570 os         1 70W      -0.477100
     12 O7           0.8770    -1.8780    -0.1050 o          1 70W      -0.549000
     13 N8          -0.6230    -0.4890     0.8820 n          1 70W      -0.394800
     14 H1           2.5670     2.3900    -0.6490 hc         1 70W       0.048922
     15 H2           3.1560     1.9960     0.9720 hc         1 70W       0.048922
     16 H3           4.2130     1.7980    -0.4250 hc         1 70W       0.048922
     17 H4           3.7450     0.0490    -2.1240 hc         1 70W       0.048922
     18 H5           2.4760    -1.1530    -1.9060 hc         1 70W       0.048922
     19 H6           2.0590     0.5210    -2.3050 hc         1 70W       0.048922
     20 H7           4.6340    -0.5300     0.2960 hc         1 70W       0.048922
     21 H8           3.5010    -0.4470     1.6400 hc         1 70W       0.048922
     22 H9           3.3470    -1.7230     0.4220 hc         1 70W       0.048922
     23 H10         -2.2200    -1.4740     1.7610 h1         1 70W       0.061950
     24 H11         -1.3110    -2.4450     0.6170 h1         1 70W       0.061950
     25 H12         -2.1990    -1.1170    -1.2740 hc         1 70W       0.052700
     26 H13         -3.5300    -1.7550    -0.3150 hc         1 70W       0.052700
     27 H14         -3.8010     0.3730     0.8410 h1         1 70W       0.057700
     28 H15         -1.5020     1.4330    -0.8540 hc         1 70W       0.052700
     29 H16         -2.4180     2.3330     0.3520 hc         1 70W       0.052700
     30 H17         -0.2500     1.5380     1.2950 h1         1 70W       0.061950
     31 H18         -1.6070     0.8250     2.1400 h1         1 70W       0.061950
     32 N14         -4.1270     0.7250    -1.1670 n8         1 70W      -0.987200
     33 H19         -4.5030     1.6510    -1.0000 hn         1 70W       0.392000
     34 H20         -3.6020     0.7980    -2.0320 hn         1 70W       0.392000
@<TRIPOS>BOND
     1     1     2 1   
     2     1     3 1   
     3     1     4 1   
     4     1    11 1   
     5     2    14 1   
     6     2    15 1   
     7     2    16 1   
     8     3    17 1   
     9     3    18 1   
    10     3    19 1   
    11     4    20 1   
    12     4    21 1   
    13     4    22 1   
    14     5    11 1   
    15     5    12 2   
    16     5    13 1   
    17     6     7 1   
    18     6    13 1   
    19     6    23 1   
    20     6    24 1   
    21     7     8 1   
    22     7    25 1   
    23     7    26 1   
    24     8     9 1   
    25     8    27 1   
    26     8    32 1   
    27     9    10 1   
    28     9    28 1   
    29     9    29 1   
    30    10    13 1   
    31    10    30 1   
    32    10    31 1   
    33    32    33 1   
    34    32    34 1   
@<TRIPOS>SUBSTRUCTURE
     1 70W         1 TEMP              0 ****  ****    0 ROOT
