@<TRIPOS>MOLECULE
70W
   34    34     1     0     0
SMALL
No Charge or Current Charge


@<TRIPOS>ATOM
      1 C1           3.0130     0.2390    -0.1220 c3         1 70W       0.224000
      2 C2           3.4980     1.7000     0.0040 c3         1 70W      -0.108100
      3 C3           3.4810    -0.3560    -1.4760 c3         1 70W      -0.108100
      4 C4           3.4910    -0.5820     1.1030 c3         1 70W      -0.108100
      5 C6           0.7390    -0.7490    -0.1990 c          1 70W       0.651100
      6 C9          -1.6550    -1.4430     0.0050 c6         1 70W       0.104000
      7 C10         -3.1030    -1.0190    -0.3300 c6         1 70W      -0.122900
      8 C11         -3.4670     0.3040     0.3570 c6         1 70W       0.156500
      9 C12         -2.4930     1.3900    -0.1210 c6         1 70W      -0.122900
     10 C13         -1.0270     1.0200     0.2060 c6         1 70W       0.104000
     11 O5           1.5700     0.3440    -0.1070 os         1 70W      -0.477100
     12 O7           1.1050    -1.9100    -0.3040 o          1 70W      -0.549000
     13 N8          -0.6210    -0.3760    -0.1570 n          1 70W      -0.394800
     14 H1           3.1320     2.3070    -0.8330 hc         1 70W       0.048922
     15 H2           3.1380     2.1520     0.9360 hc         1 70W       0.048922
     16 H3           4.5940     1.7500     0.0040 hc         1 70W       0.048922
     17 H4           4.5630    -0.2250    -1.5960 hc         1 70W       0.048922
     18 H5           3.2760    -1.4300    -1.5440 hc         1 70W       0.048922
     19 H6           2.9840     0.1460    -2.3140 hc         1 70W       0.048922
     20 H7           4.5740    -0.4740     1.2360 hc         1 70W       0.048922
     21 H8           3.0010    -0.2340     2.0200 hc         1 70W       0.048922
     22 H9           3.2850    -1.6520     0.9860 hc         1 70W       0.048922
     23 H10         -1.6220    -1.7900     1.0480 h1         1 70W       0.061950
     24 H11         -1.3940    -2.3060    -0.6250 h1         1 70W       0.061950
     25 H12         -3.2050    -0.9190    -1.4200 hc         1 70W       0.052700
     26 H13         -3.7950    -1.8140    -0.0210 hc         1 70W       0.052700
     27 H14         -3.3860     0.1890     1.4500 h1         1 70W       0.057700
     28 H15         -2.5910     1.5310    -1.2070 hc         1 70W       0.052700
     29 H16         -2.7350     2.3560     0.3430 hc         1 70W       0.052700
     30 H17         -0.3790     1.7450    -0.3060 h1         1 70W       0.061950
     31 H18         -0.8620     1.1510     1.2850 h1         1 70W       0.061950
     32 N14         -4.8540     0.6820     0.0380 n8         1 70W      -0.987200
     33 H19         -5.0450     1.6060     0.4410 hn         1 70W       0.392000
     34 H20         -4.9240     0.8430    -0.9730 hn         1 70W       0.392000
@<TRIPOS>BOND
     1     1     2 1   
     2     1     3 1   
     3     1     4 1   
     4     1    11 1   
     5     2    14 1   
     6     2    15 1   
     7     2    16 1   
     8     3    17 1   
     9     3    18 1   
    10     3    19 1   
    11     4    20 1   
    12     4    21 1   
    13     4    22 1   
    14     5    11 1   
    15     5    12 2   
    16     5    13 1   
    17     6     7 1   
    18     6    13 1   
    19     6    23 1   
    20     6    24 1   
    21     7     8 1   
    22     7    25 1   
    23     7    26 1   
    24     8     9 1   
    25     8    27 1   
    26     8    32 1   
    27     9    10 1   
    28     9    28 1   
    29     9    29 1   
    30    10    13 1   
    31    10    30 1   
    32    10    31 1   
    33    32    33 1   
    34    32    34 1   
@<TRIPOS>SUBSTRUCTURE
     1 70W         1 TEMP              0 ****  ****    0 ROOT
