@<TRIPOS>MOLECULE
70X
   57    59     1     0     0
SMALL
bcc


@<TRIPOS>ATOM
      1 C27         -8.3240    -0.2630     1.3440 ca         1 70X      -0.123000
      2 C28         -7.8220     0.8930     1.9250 ca         1 70X      -0.130500
      3 C29         -6.6190     1.4300     1.4800 ca         1 70X      -0.116500
      4 C26         -7.6190    -0.8780     0.3160 ca         1 70X      -0.130500
      5 C25         -6.4210    -0.3380    -0.1280 ca         1 70X      -0.116500
      6 C24         -5.9100     0.8230     0.4500 ca         1 70X      -0.109300
      7 C23         -4.6200     1.4200    -0.0460 c3         1 70X       0.146300
      8 C14          0.7360    -1.4270    -1.0470 ca         1 70X      -0.116300
      9 C15         -0.2160    -0.4160    -1.1250 ca         1 70X      -0.054000
     10 C16         -1.5370    -0.6500    -0.7570 ca         1 70X      -0.162600
     11 C17         -1.9170    -1.9230    -0.3330 ca         1 70X      -0.101000
     12 C18         -0.9770    -2.9390    -0.2720 ca         1 70X      -0.147000
     13 C19          0.3430    -2.6900    -0.6180 ca         1 70X      -0.080000
     14 C20         -2.5180     0.4700    -0.8880 c          1 70X       0.679700
     15 N1           3.9060     1.7590    -0.0570 nu         1 70X      -0.908200
     16 C2           4.8370     1.1310     0.8730 c6         1 70X       0.263200
     17 C3           3.9890     0.1070     1.6180 c6         1 70X      -0.167400
     18 C4           3.2790    -0.8230     0.6770 c          1 70X       0.718500
     19 N5           2.8710    -0.2850    -0.5160 n          1 70X      -0.412300
     20 C6           3.0690     1.0620    -0.8680 c2         1 70X       0.694800
     21 N7           2.4460     1.5230    -1.8820 n2         1 70X      -0.881100
     22 C10          6.0090     0.4600     0.1050 c3         1 70X      -0.082700
     23 C11          5.3200     2.1980     1.8460 c3         1 70X      -0.096100
     24 C12          6.7810     1.4520    -0.7630 c3         1 70X      -0.087600
     25 C13          6.9820    -0.2960     1.0080 c3         1 70X      -0.087600
     26 O21         -2.3700     1.3510    -1.7250 o          1 70X      -0.600100
     27 N22         -3.5590     0.4360    -0.0380 ns         1 70X      -0.573900
     28 H1          -9.2590    -0.6840     1.6900 ha         1 70X       0.131000
     29 H2          -8.3640     1.3780     2.7270 ha         1 70X       0.131500
     30 H3          -6.2310     2.3290     1.9440 ha         1 70X       0.133500
     31 H4          -8.0040    -1.7800    -0.1430 ha         1 70X       0.131500
     32 H5          -5.8770    -0.8240    -0.9290 ha         1 70X       0.133500
     33 H6          -4.7440     1.7800    -1.0680 h1         1 70X       0.060200
     34 H7          -4.3510     2.2890     0.5620 h1         1 70X       0.060200
     35 H8           0.0850     0.5650    -1.4730 ha         1 70X       0.172000
     36 H9          -2.9470    -2.1400    -0.0780 ha         1 70X       0.129000
     37 H10         -1.2770    -3.9300     0.0440 ha         1 70X       0.133000
     38 H11          1.0730    -3.4870    -0.5610 ha         1 70X       0.140000
     39 H12          4.5690    -0.4860     2.3220 hc         1 70X       0.084700
     40 H13          3.2270     0.6350     2.2030 hc         1 70X       0.084700
     41 H14          2.7050     2.4860    -2.0600 hn         1 70X       0.389400
     42 H16          2.7130    -2.0990    -1.5220 h1         1 70X       0.075200
     43 H17          2.1960    -0.6820    -2.4210 h1         1 70X       0.075200
     44 H18          5.5580    -0.2720    -0.5740 hc         1 70X       0.057700
     45 H19          4.4730     2.6740     2.3410 hc         1 70X       0.047033
     46 H20          5.9550     1.7600     2.6140 hc         1 70X       0.047033
     47 H21          5.8970     2.9740     1.3410 hc         1 70X       0.047033
     48 H22          7.3690     2.1470    -0.1610 hc         1 70X       0.036700
     49 H23          7.4780     0.9160    -1.4080 hc         1 70X       0.036700
     50 H24          6.1280     2.0360    -1.4120 hc         1 70X       0.036700
     51 H25          6.4960    -1.0500     1.6270 hc         1 70X       0.036700
     52 H26          7.7210    -0.8150     0.3960 hc         1 70X       0.036700
     53 H27          7.5290     0.3790     1.6680 hc         1 70X       0.036700
     54 H28         -3.5330    -0.2000     0.7430 hn         1 70X       0.317500
     55 H29          4.1090     2.7010    -0.3510 hn         1 70X       0.430800
     56 C9           2.1640    -1.1610    -1.4470 c3         1 70X       0.155300
     57 O8           3.0550    -1.9860     0.9490 o          1 70X      -0.608500
@<TRIPOS>BOND
     1     1     2 ar  
     2     1     4 ar  
     3     1    28 1   
     4     2     3 ar  
     5     2    29 1   
     6     3     6 ar  
     7     3    30 1   
     8     4     5 ar  
     9     4    31 1   
    10     5     6 ar  
    11     5    32 1   
    12     6     7 1   
    13     7    27 1   
    14     7    33 1   
    15     7    34 1   
    16     8     9 ar  
    17     8    13 ar  
    18     8    56 1   
    19     9    10 ar  
    20     9    35 1   
    21    10    11 ar  
    22    10    14 1   
    23    11    12 ar  
    24    11    36 1   
    25    12    13 ar  
    26    12    37 1   
    27    13    38 1   
    28    14    26 2   
    29    14    27 1   
    30    15    16 1   
    31    15    20 1   
    32    15    55 1   
    33    16    17 1   
    34    16    22 1   
    35    16    23 1   
    36    17    18 1   
    37    17    39 1   
    38    17    40 1   
    39    18    19 1   
    40    18    57 2   
    41    19    20 1   
    42    19    56 1   
    43    20    21 2   
    44    21    41 1   
    45    22    24 1   
    46    22    25 1   
    47    22    44 1   
    48    23    45 1   
    49    23    46 1   
    50    23    47 1   
    51    24    48 1   
    52    24    49 1   
    53    24    50 1   
    54    25    51 1   
    55    25    52 1   
    56    25    53 1   
    57    27    54 1   
    58    42    56 1   
    59    43    56 1   
@<TRIPOS>SUBSTRUCTURE
     1 70X         1 TEMP              0 ****  ****    0 ROOT
