@<TRIPOS>MOLECULE
70X
   57    59     1     0     0
SMALL
No Charge or Current Charge


@<TRIPOS>ATOM
      1 C27         -8.6120    -0.4110     1.3420 ca         1 70X      -0.105000
      2 C28         -7.7260     0.3350     2.1380 ca         1 70X      -0.112500
      3 C29         -6.5610     0.8820     1.5720 ca         1 70X      -0.098500
      4 C26         -8.3310    -0.6100    -0.0210 ca         1 70X      -0.112500
      5 C25         -7.1660    -0.0630    -0.5870 ca         1 70X      -0.098500
      6 C24         -6.2760     0.6880     0.2060 ca         1 70X      -0.109300
      7 C23         -5.0130     1.2740    -0.4050 c3         1 70X       0.146300
      8 C14          0.7000    -1.3170    -0.8550 ca         1 70X      -0.116300
      9 C15         -0.2810    -0.3190    -1.0180 ca         1 70X      -0.036000
     10 C16         -1.6080    -0.5190    -0.5710 ca         1 70X      -0.162600
     11 C17         -1.9350    -1.7500     0.0480 ca         1 70X      -0.083000
     12 C18         -0.9580    -2.7460     0.2100 ca         1 70X      -0.129000
     13 C19          0.3540    -2.5330    -0.2400 ca         1 70X      -0.062000
     14 C20         -2.6290     0.5830    -0.7670 c          1 70X       0.612700
     15 N1           4.1860     1.7620    -0.1760 nu         1 70X      -0.963400
     16 C2           5.0820     1.1620     0.8060 c6         1 70X       0.263200
     17 C3           4.1890     0.2370     1.6430 c6         1 70X      -0.167400
     18 C4           3.4220    -0.7050     0.7340 c          1 70X       0.576000
     19 N5           2.9120    -0.1830    -0.4650 n          1 70X      -0.345300
     20 C6           3.1440     1.1530    -0.8090 c2         1 70X       0.694800
     21 N7           2.5250     1.7970    -1.7010 n2         1 70X      -0.881100
     22 C10          6.2460     0.3890     0.0550 c3         1 70X      -0.082700
     23 C11          5.6520     2.2980     1.7030 c3         1 70X      -0.096100
     24 C12          7.1090     1.2750    -0.8860 c3         1 70X      -0.087600
     25 C13          7.1820    -0.4350     0.9800 c3         1 70X      -0.087600
     26 O21         -2.3510     1.6440    -1.3090 o          1 70X      -0.600100
     27 N22         -3.9010     0.3350    -0.3050 ns         1 70X      -0.506900
     28 H1          -9.5130    -0.8350     1.7800 ha         1 70X       0.113000
     29 H2          -7.9410     0.4880     3.1930 ha         1 70X       0.113500
     30 H3          -5.8790     1.4560     2.1960 ha         1 70X       0.115500
     31 H4          -9.0160    -1.1880    -0.6380 ha         1 70X       0.113500
     32 H5          -6.9550    -0.2240    -1.6430 ha         1 70X       0.115500
     33 H6          -5.1870     1.5130    -1.4630 h1         1 70X       0.060200
     34 H7          -4.7450     2.2050     0.1140 h1         1 70X       0.060200
     35 H8          -0.0070     0.6200    -1.4970 ha         1 70X       0.154000
     36 H9          -2.9390    -1.9540     0.4090 ha         1 70X       0.111000
     37 H10         -1.2190    -3.6890     0.6860 ha         1 70X       0.115000
     38 H11          1.1010    -3.3130    -0.1060 ha         1 70X       0.122000
     39 H12          4.7150    -0.3100     2.4340 hc         1 70X       0.084700
     40 H13          3.4320     0.8750     2.1160 hc         1 70X       0.084700
     41 H14          2.9230     2.7390    -1.7530 hn         1 70X       0.389400
     42 H16          2.6490    -2.0410    -1.4330 h1         1 70X       0.075200
     43 H17          2.0900    -0.6630    -2.3590 h1         1 70X       0.075200
     44 H18          5.7740    -0.3480    -0.6070 hc         1 70X       0.057700
     45 H19          4.8470     2.8500     2.2040 hc         1 70X       0.047033
     46 H20          6.3050     1.9030     2.4900 hc         1 70X       0.047033
     47 H21          6.2280     3.0310     1.1280 hc         1 70X       0.047033
     48 H22          7.7160     1.9890    -0.3190 hc         1 70X       0.036700
     49 H23          7.7930     0.6540    -1.4770 hc         1 70X       0.036700
     50 H24          6.4850     1.8350    -1.5930 hc         1 70X       0.036700
     51 H25          6.6260    -1.1890     1.5470 hc         1 70X       0.036700
     52 H26          7.9330    -0.9700     0.3860 hc         1 70X       0.036700
     53 H27          7.7150     0.2100     1.6880 hc         1 70X       0.036700
     54 H28         -4.0680    -0.5600     0.1340 hn         1 70X       0.317500
     55 H29          4.4060     2.7000    -0.4920 hn         1 70X       0.486000
     56 C9           2.1260    -1.0800    -1.3440 c3         1 70X       0.155300
     57 O8           3.3010    -1.8850     1.0390 o          1 70X      -0.533000
@<TRIPOS>BOND
     1     1     2 ar  
     2     1     4 ar  
     3     1    28 1   
     4     2     3 ar  
     5     2    29 1   
     6     3     6 ar  
     7     3    30 1   
     8     4     5 ar  
     9     4    31 1   
    10     5     6 ar  
    11     5    32 1   
    12     6     7 1   
    13     7    27 1   
    14     7    33 1   
    15     7    34 1   
    16     8     9 ar  
    17     8    13 ar  
    18     8    56 1   
    19     9    10 ar  
    20     9    35 1   
    21    10    11 ar  
    22    10    14 1   
    23    11    12 ar  
    24    11    36 1   
    25    12    13 ar  
    26    12    37 1   
    27    13    38 1   
    28    14    26 2   
    29    14    27 1   
    30    15    16 1   
    31    15    20 1   
    32    15    55 1   
    33    16    17 1   
    34    16    22 1   
    35    16    23 1   
    36    17    18 1   
    37    17    39 1   
    38    17    40 1   
    39    18    19 1   
    40    18    57 2   
    41    19    20 1   
    42    19    56 1   
    43    20    21 2   
    44    21    41 1   
    45    22    24 1   
    46    22    25 1   
    47    22    44 1   
    48    23    45 1   
    49    23    46 1   
    50    23    47 1   
    51    24    48 1   
    52    24    49 1   
    53    24    50 1   
    54    25    51 1   
    55    25    52 1   
    56    25    53 1   
    57    27    54 1   
    58    42    56 1   
    59    43    56 1   
@<TRIPOS>SUBSTRUCTURE
     1 70X         1 TEMP              0 ****  ****    0 ROOT
