@<TRIPOS>MOLECULE
70Y
   61    64     1     0     0
SMALL
No Charge or Current Charge


@<TRIPOS>ATOM
      1 C25          5.4380     1.7020    -1.7920 ca         1 70Y      -0.103000
      2 C26          6.0550     2.9540    -1.6290 ca         1 70Y      -0.109000
      3 C27          6.1010     3.5560    -0.3620 ca         1 70Y      -0.107000
      4 C28          5.5290     2.9020     0.7400 ca         1 70Y      -0.109000
      5 C29          4.9120     1.6500     0.5760 ca         1 70Y      -0.103000
      6 C24          4.8570     1.0310    -0.6960 ca         1 70Y      -0.078300
      7 C23          2.7400    -0.3380    -0.3580 c5         1 70Y       0.101000
      8 C22          4.1940    -0.3340    -0.9290 c5         1 70Y      -0.033400
      9 C20          3.7700    -2.4850     0.0300 c          1 70Y       0.566000
     10 C4          -3.5360    -0.5590    -0.4030 c          1 70Y       0.575000
     11 C2          -4.3270     1.8080    -0.5260 c6         1 70Y       0.263200
     12 C3          -4.0140     0.5420    -1.3320 c6         1 70Y      -0.168400
     13 C11         -4.5490     3.0070    -1.4940 c3         1 70Y      -0.096100
     14 C17         -0.3240    -4.2480    -0.0370 ca         1 70Y      -0.100000
     15 C16          0.9500    -3.7030    -0.2690 ca         1 70Y      -0.110000
     16 C15          1.2180    -2.3430     0.0120 ca         1 70Y      -0.032000
     17 C14          0.2050    -1.5890     0.6450 ca         1 70Y      -0.133000
     18 N1          -3.1210     2.0680     0.2510 nu         1 70Y      -0.962400
     19 N5          -2.6750    -0.1990     0.6440 n          1 70Y      -0.344300
     20 C6          -2.3100     1.1390     0.8320 c2         1 70Y       0.698800
     21 N7          -1.3560     1.5470     1.5520 n2         1 70Y      -0.892100
     22 C10         -5.5600     1.6320     0.4560 c3         1 70Y      -0.081700
     23 C13         -1.0750    -2.1260     0.8810 ca         1 70Y      -0.088300
     24 C18         -1.3370    -3.4610     0.5270 ca         1 70Y      -0.102000
     25 N19          2.5480    -1.7790    -0.0630 n          1 70Y      -0.232400
     26 C21          4.8540    -1.4120    -0.0320 c5         1 70Y      -0.164400
     27 O30          3.9210    -3.6990    -0.0020 o          1 70Y      -0.531000
     28 H1           5.4120     1.2510    -2.7820 ha         1 70Y       0.113500
     29 H2           6.4980     3.4570    -2.4850 ha         1 70Y       0.114000
     30 H3           6.5790     4.5250    -0.2340 ha         1 70Y       0.114000
     31 H4           5.5640     3.3650     1.7240 ha         1 70Y       0.114000
     32 H5          -7.6730     1.0510     0.5160 hc         1 70Y       0.037033
     33 H6          -7.2290     1.9400    -0.9500 hc         1 70Y       0.037033
     34 H7          -6.7620     0.2340    -0.7530 hc         1 70Y       0.037033
     35 H8           4.4790     1.1660     1.4490 ha         1 70Y       0.113500
     36 H9           2.6380     0.2530     0.5600 h1         1 70Y       0.057200
     37 H10          2.0130     0.0340    -1.0920 h1         1 70Y       0.057200
     38 H11          4.2000    -0.6420    -1.9830 hc         1 70Y       0.065700
     39 H12         -3.1570     0.7810    -1.9740 hc         1 70Y       0.085200
     40 H13         -4.8330     0.1950    -1.9730 hc         1 70Y       0.085200
     41 H14         -4.6920     3.9520    -0.9580 hc         1 70Y       0.047367
     42 H15         -3.6870     3.1460    -2.1570 hc         1 70Y       0.047367
     43 H16         -5.4240     2.8520    -2.1360 hc         1 70Y       0.047367
     44 H17         -0.5230    -5.2860    -0.2930 ha         1 70Y       0.114000
     45 H18          1.7060    -4.3440    -0.7120 ha         1 70Y       0.134000
     46 H19          0.4050    -0.5670     0.9580 ha         1 70Y       0.133000
     47 H20         -6.2100     3.7140     0.7840 hc         1 70Y       0.037033
     48 H21         -6.6090     2.6150     2.1120 hc         1 70Y       0.037033
     49 H22         -4.9450     3.1720     1.9100 hc         1 70Y       0.037033
     50 H23         -2.9040     3.0350     0.4640 hn         1 70Y       0.485000
     51 H24         -1.3460     2.5700     1.5240 hn         1 70Y       0.385400
     52 H25         -1.7610    -0.8310     2.4510 h1         1 70Y       0.075200
     53 H26         -2.9990    -1.9090     1.8360 h1         1 70Y       0.075200
     54 H27         -5.3100     0.8200     1.1500 hc         1 70Y       0.058700
     55 H28         -2.3210    -3.8930     0.7000 ha         1 70Y       0.120000
     56 H29          5.8040    -1.8170    -0.3970 hc         1 70Y       0.081200
     57 H30          4.9900    -1.0340     0.9860 hc         1 70Y       0.081200
     58 C9          -2.1610    -1.2710     1.5290 c3         1 70Y       0.154300
     59 O8          -3.9360    -1.7060    -0.5580 o          1 70Y      -0.525000
     60 C12         -5.8440     2.8600     1.3660 c3         1 70Y      -0.088100
     61 C31         -6.8810     1.1900    -0.2300 c3         1 70Y      -0.088100
@<TRIPOS>BOND
     1     1     2 ar  
     2     1     6 ar  
     3     1    28 1   
     4     2     3 ar  
     5     2    29 1   
     6     3     4 ar  
     7     3    30 1   
     8     4     5 ar  
     9     4    31 1   
    10     5     6 ar  
    11     5    35 1   
    12     6     8 1   
    13     7     8 1   
    14     7    25 1   
    15     7    36 1   
    16     7    37 1   
    17     8    26 1   
    18     8    38 1   
    19     9    25 1   
    20     9    26 1   
    21     9    27 2   
    22    10    12 1   
    23    10    19 1   
    24    10    59 2   
    25    11    12 1   
    26    11    13 1   
    27    11    18 1   
    28    11    22 1   
    29    12    39 1   
    30    12    40 1   
    31    13    41 1   
    32    13    42 1   
    33    13    43 1   
    34    14    15 ar  
    35    14    24 ar  
    36    14    44 1   
    37    15    16 ar  
    38    15    45 1   
    39    16    17 ar  
    40    16    25 1   
    41    17    23 ar  
    42    17    46 1   
    43    18    20 1   
    44    18    50 1   
    45    19    20 1   
    46    19    58 1   
    47    20    21 2   
    48    21    51 1   
    49    22    54 1   
    50    22    60 1   
    51    22    61 1   
    52    23    24 ar  
    53    23    58 1   
    54    24    55 1   
    55    26    56 1   
    56    26    57 1   
    57    32    61 1   
    58    33    61 1   
    59    34    61 1   
    60    47    60 1   
    61    48    60 1   
    62    49    60 1   
    63    52    58 1   
    64    53    58 1   
@<TRIPOS>SUBSTRUCTURE
     1 70Y         1 TEMP              0 ****  ****    0 ROOT
