@<TRIPOS>MOLECULE
70Y
   61    64     1     0     0
SMALL
abcg2


@<TRIPOS>ATOM
      1 C25          4.8170     1.9600    -1.7730 ca         1 70Y      -0.103000
      2 C26          5.3400     3.2350    -1.5970 ca         1 70Y      -0.109000
      3 C27          5.5060     3.7490    -0.3190 ca         1 70Y      -0.107000
      4 C28          5.1440     2.9790     0.7800 ca         1 70Y      -0.109000
      5 C29          4.6220     1.7070     0.6000 ca         1 70Y      -0.103000
      6 C24          4.4540     1.1790    -0.6800 ca         1 70Y      -0.078300
      7 C23          2.4800    -0.3880    -0.3240 c5         1 70Y       0.101000
      8 C22          3.8930    -0.2010    -0.8840 c5         1 70Y      -0.033400
      9 C20          3.6270    -2.4010     0.0320 c          1 70Y       0.566000
     10 C4          -3.4590    -0.7020    -0.4000 c          1 70Y       0.575000
     11 C2          -4.0070     1.7480    -0.5940 c6         1 70Y       0.263200
     12 C3          -3.8530     0.4170    -1.3210 c6         1 70Y      -0.168400
     13 C11         -4.0880     2.8770    -1.6140 c3         1 70Y      -0.096100
     14 C17         -0.2780    -4.3730     0.1240 ca         1 70Y      -0.100000
     15 C16          0.9570    -3.8020    -0.1400 ca         1 70Y      -0.110000
     16 C15          1.1680    -2.4540     0.1580 ca         1 70Y      -0.032000
     17 C14          0.1270    -1.7040     0.7000 ca         1 70Y      -0.133000
     18 N1          -2.7610     1.9100     0.1430 nu         1 70Y      -0.962400
     19 N5          -2.6630    -0.3660     0.6660 n          1 70Y      -0.344300
     20 C6          -2.1970     0.9380     0.9060 c2         1 70Y       0.698800
     21 N7          -1.2820     1.1040     1.7800 n2         1 70Y      -0.892100
     22 C10         -5.2260     1.7360     0.3700 c3         1 70Y      -0.081700
     23 C13         -1.1160    -2.2780     0.9510 ca         1 70Y      -0.088300
     24 C18         -1.3140    -3.6220     0.6630 ca         1 70Y      -0.102000
     25 N19          2.3970    -1.8250    -0.1000 n          1 70Y      -0.232400
     26 C21          4.6670    -1.3320    -0.2100 c5         1 70Y      -0.164400
     27 O30          3.8470    -3.5590     0.3250 o          1 70Y      -0.531000
     28 H1           4.6890     1.5660    -2.7740 ha         1 70Y       0.113500
     29 H2           5.6170     3.8260    -2.4620 ha         1 70Y       0.114000
     30 H3           5.9150     4.7410    -0.1770 ha         1 70Y       0.114000
     31 H4           5.2690     3.3710     1.7810 ha         1 70Y       0.114000
     32 H5          -7.3730     1.5270     0.3730 hc         1 70Y       0.037033
     33 H6          -6.7700     2.4340    -1.0060 hc         1 70Y       0.037033
     34 H7          -6.6140     0.6790    -0.9600 hc         1 70Y       0.037033
     35 H8           4.3460     1.1210     1.4700 ha         1 70Y       0.113500
     36 H9           2.3450     0.1650     0.6110 h1         1 70Y       0.057200
     37 H10          1.7110    -0.0600    -1.0240 h1         1 70Y       0.057200
     38 H11          3.8550    -0.4050    -1.9570 hc         1 70Y       0.065700
     39 H12         -3.0640     0.5140    -2.0750 hc         1 70Y       0.085200
     40 H13         -4.7590     0.1260    -1.8480 hc         1 70Y       0.085200
     41 H14         -4.1590     3.8530    -1.1320 hc         1 70Y       0.047367
     42 H15         -3.1990     2.8780    -2.2440 hc         1 70Y       0.047367
     43 H16         -4.9560     2.7600    -2.2600 hc         1 70Y       0.047367
     44 H17         -0.4380    -5.4170    -0.1140 ha         1 70Y       0.114000
     45 H18          1.7340    -4.4010    -0.5880 ha         1 70Y       0.134000
     46 H19          0.2700    -0.6600     0.9510 ha         1 70Y       0.133000
     47 H20         -5.3770     3.8890     0.7120 hc         1 70Y       0.037033
     48 H21         -6.1070     2.8920     1.9620 hc         1 70Y       0.037033
     49 H22         -4.3610     3.0510     1.8880 hc         1 70Y       0.037033
     50 H23         -2.4810     2.8510     0.3730 hn         1 70Y       0.485000
     51 H24         -1.0570     2.0860     1.8880 hn         1 70Y       0.385400
     52 H25         -1.8990    -0.9910     2.4750 h1         1 70Y       0.075200
     53 H26         -3.0830    -2.0770     1.7690 h1         1 70Y       0.075200
     54 H27         -5.1090     0.8620     1.0220 hc         1 70Y       0.058700
     55 H28         -2.2780    -4.0780     0.8490 ha         1 70Y       0.120000
     56 H29          5.4950    -1.7140    -0.8060 hc         1 70Y       0.081200
     57 H30          5.0750    -1.0290     0.7590 hc         1 70Y       0.081200
     58 C9          -2.2240    -1.4460     1.5440 c3         1 70Y       0.154300
     59 O8          -3.7980    -1.8530    -0.5900 o          1 70Y      -0.525000
     60 C12         -5.2610     2.9630     1.2780 c3         1 70Y      -0.088100
     61 C31         -6.5620     1.5840    -0.3540 c3         1 70Y      -0.088100
@<TRIPOS>BOND
     1     1     2 ar  
     2     1     6 ar  
     3     1    28 1   
     4     2     3 ar  
     5     2    29 1   
     6     3     4 ar  
     7     3    30 1   
     8     4     5 ar  
     9     4    31 1   
    10     5     6 ar  
    11     5    35 1   
    12     6     8 1   
    13     7     8 1   
    14     7    25 1   
    15     7    36 1   
    16     7    37 1   
    17     8    26 1   
    18     8    38 1   
    19     9    25 1   
    20     9    26 1   
    21     9    27 2   
    22    10    12 1   
    23    10    19 1   
    24    10    59 2   
    25    11    12 1   
    26    11    13 1   
    27    11    18 1   
    28    11    22 1   
    29    12    39 1   
    30    12    40 1   
    31    13    41 1   
    32    13    42 1   
    33    13    43 1   
    34    14    15 ar  
    35    14    24 ar  
    36    14    44 1   
    37    15    16 ar  
    38    15    45 1   
    39    16    17 ar  
    40    16    25 1   
    41    17    23 ar  
    42    17    46 1   
    43    18    20 1   
    44    18    50 1   
    45    19    20 1   
    46    19    58 1   
    47    20    21 2   
    48    21    51 1   
    49    22    54 1   
    50    22    60 1   
    51    22    61 1   
    52    23    24 ar  
    53    23    58 1   
    54    24    55 1   
    55    26    56 1   
    56    26    57 1   
    57    32    61 1   
    58    33    61 1   
    59    34    61 1   
    60    47    60 1   
    61    48    60 1   
    62    49    60 1   
    63    52    58 1   
    64    53    58 1   
@<TRIPOS>SUBSTRUCTURE
     1 70Y         1 TEMP              0 ****  ****    0 ROOT
