@<TRIPOS>MOLECULE
70Z
   65    68     1     0     0
SMALL
No Charge or Current Charge


@<TRIPOS>ATOM
      1 C1           0.2940    -2.3310     0.0940 c          1 70Z       0.624700
      2 C7          -1.5400    -3.9120     0.8710 ca         1 70Z       0.184100
      3 C9          -3.7840    -3.1250     1.3250 ca         1 70Z      -0.026000
      4 C10         -3.4170    -1.8640     0.9210 ca         1 70Z      -0.159000
      5 C11         -4.5830    -1.0430     1.1290 cc         1 70Z      -0.157300
      6 C14         -4.7810     0.4130     0.8830 c          1 70Z       0.634300
      7 C16          1.7960    -0.4050    -0.4920 ca         1 70Z      -0.101000
      8 C19          3.5610     0.3980     1.0040 ca         1 70Z      -0.165000
      9 C20          3.8400     0.6000    -1.3890 ca         1 70Z      -0.165000
     10 C21          2.3220    -0.2340     0.8060 ca         1 70Z      -0.064000
     11 N23          5.5820     1.4720     0.0880 nh         1 70Z      -0.788400
     12 C30         -3.8460     2.5230    -0.0980 c3         1 70Z       0.095000
     13 C31         -4.8700     3.2810    -0.9730 c3         1 70Z      -0.101400
     14 C32         -4.7290     4.8150    -0.8650 c3         1 70Z      -0.072400
     15 C33         -3.6550     0.3630    -1.3840 c3         1 70Z       0.088300
     16 C34         -5.7470     5.5770    -1.7350 c3         1 70Z      -0.089100
     17 N2           0.5870    -1.1780    -0.6770 n          1 70Z      -0.225400
     18 O3           1.1910    -3.0520     0.5220 o          1 70Z      -0.614100
     19 C4          -1.1420    -2.6050     0.4850 ca         1 70Z      -0.226600
     20 C5          -2.0970    -1.5570     0.5450 ca         1 70Z       0.007000
     21 C6          -2.8570    -4.1730     1.2880 ca         1 70Z      -0.150000
     22 N12         -5.5250    -1.8820     1.7170 na         1 70Z       0.056500
     23 N13         -5.0850    -3.2060     1.8150 nc         1 70Z      -0.273400
     24 O15         -5.6220     1.0430     1.5130 o          1 70Z      -0.591100
     25 C17          2.6010    -0.0330    -1.5910 ca         1 70Z      -0.064000
     26 C18          4.3290     0.8350    -0.0920 ca         1 70Z       0.313000
     27 N24         -4.0030     1.0490    -0.1150 n          1 70Z      -0.393800
     28 C25          6.4080     1.2310     1.3170 c6         1 70Z       0.162800
     29 C26          7.9100     1.5840     1.0990 c6         1 70Z       0.146100
     30 O27          8.0520     2.9200     0.5620 os         1 70Z      -0.443000
     31 C28          7.3820     3.0780    -0.7110 c6         1 70Z       0.146100
     32 C29          5.8560     2.7910    -0.5740 c6         1 70Z       0.162800
     33 H1           3.9170     0.5480     2.0190 ha         1 70Z       0.116000
     34 H2           4.4350     0.8860    -2.2500 ha         1 70Z       0.116000
     35 H3           1.7580    -0.5710     1.6730 ha         1 70Z       0.118500
     36 H4          -0.3230     0.1010    -2.1010 h1         1 70Z       0.042367
     37 H5           0.3560    -1.4120    -2.7690 h1         1 70Z       0.042367
     38 H6          -1.1710    -1.4540    -1.8730 h1         1 70Z       0.042367
     39 H7          -2.8330     2.7680    -0.4440 h1         1 70Z       0.058200
     40 H8          -3.9230     2.8800     0.9380 h1         1 70Z       0.058200
     41 H9          -4.7480     2.9870    -2.0220 hc         1 70Z       0.048700
     42 H10         -5.8840     2.9900    -0.6720 hc         1 70Z       0.048700
     43 H11         -4.8570     5.1190     0.1820 hc         1 70Z       0.038700
     44 H12         -3.7150     5.1090    -1.1620 hc         1 70Z       0.038700
     45 H13         -2.5910     0.5110    -1.6030 h1         1 70Z       0.044367
     46 H14         -3.8760    -0.7090    -1.3440 h1         1 70Z       0.044367
     47 H15         -4.2410     0.7880    -2.2080 h1         1 70Z       0.044367
     48 H16         -5.6210     5.3210    -2.7940 hc         1 70Z       0.034033
     49 H17         -6.7740     5.3300    -1.4380 hc         1 70Z       0.034033
     50 H18         -5.6100     6.6590    -1.6250 hc         1 70Z       0.034033
     51 H19         -1.8050    -0.5290     0.3450 ha         1 70Z       0.122000
     52 H20         -3.1410    -5.1700     1.6130 ha         1 70Z       0.148000
     53 H21          0.2520    -4.5150     0.7720 ho         1 70Z       0.505000
     54 H22         -6.4570    -1.6170     2.0260 hn         1 70Z       0.386000
     55 H23          2.2800    -0.2250    -2.6110 ha         1 70Z       0.118500
     56 H24          6.0220     1.8340     2.1530 h1         1 70Z       0.048450
     57 H25          6.3440     0.1740     1.6170 h1         1 70Z       0.048450
     58 H26          8.4510     1.5200     2.0540 h1         1 70Z       0.054950
     59 H27          8.3650     0.8650     0.4030 h1         1 70Z       0.054950
     60 H28          7.5370     4.1030    -1.0760 h1         1 70Z       0.054950
     61 H29          7.8270     2.3870    -1.4420 h1         1 70Z       0.054950
     62 H30          5.4090     2.8280    -1.5780 h1         1 70Z       0.048450
     63 H31          5.3970     3.6010     0.0110 h1         1 70Z       0.048450
     64 O8          -0.6400    -4.9340     0.8820 oh         1 70Z      -0.548100
     65 C22         -0.1880    -0.9740    -1.9240 c3         1 70Z       0.099300
@<TRIPOS>BOND
     1     1    17 1   
     2     1    18 2   
     3     1    19 1   
     4     2    19 ar  
     5     2    21 ar  
     6     2    64 1   
     7     3     4 ar  
     8     3    21 ar  
     9     3    23 2   
    10     4     5 2   
    11     4    20 ar  
    12     5     6 1   
    13     5    22 1   
    14     6    24 2   
    15     6    27 1   
    16     7    10 ar  
    17     7    17 1   
    18     7    25 ar  
    19     8    10 ar  
    20     8    26 ar  
    21     8    33 1   
    22     9    25 ar  
    23     9    26 ar  
    24     9    34 1   
    25    10    35 1   
    26    11    26 1   
    27    11    28 1   
    28    11    32 1   
    29    12    13 1   
    30    12    27 1   
    31    12    39 1   
    32    12    40 1   
    33    13    14 1   
    34    13    41 1   
    35    13    42 1   
    36    14    16 1   
    37    14    43 1   
    38    14    44 1   
    39    15    27 1   
    40    15    45 1   
    41    15    46 1   
    42    15    47 1   
    43    16    48 1   
    44    16    49 1   
    45    16    50 1   
    46    17    65 1   
    47    19    20 ar  
    48    20    51 1   
    49    21    52 1   
    50    22    23 1   
    51    22    54 1   
    52    25    55 1   
    53    28    29 1   
    54    28    56 1   
    55    28    57 1   
    56    29    30 1   
    57    29    58 1   
    58    29    59 1   
    59    30    31 1   
    60    31    32 1   
    61    31    60 1   
    62    31    61 1   
    63    32    62 1   
    64    32    63 1   
    65    36    65 1   
    66    37    65 1   
    67    38    65 1   
    68    53    64 1   
@<TRIPOS>SUBSTRUCTURE
     1 70Z         1 TEMP              0 ****  ****    0 ROOT
