@<TRIPOS>MOLECULE
70Z
   65    68     1     0     0
SMALL
abcg2


@<TRIPOS>ATOM
      1 C1           0.4810    -1.8680     0.2060 c          1 70Z       0.624700
      2 C7          -1.2890    -3.6450     0.3140 ca         1 70Z       0.184100
      3 C9          -3.6030    -3.0800     0.4290 ca         1 70Z      -0.026000
      4 C10         -3.2790    -1.6960     0.4050 ca         1 70Z      -0.159000
      5 C11         -4.5140    -1.0500     0.5140 cc         1 70Z      -0.157300
      6 C14         -4.9240     0.3660     0.6920 c          1 70Z       0.634300
      7 C16          2.2230    -0.3590    -0.3590 ca         1 70Z      -0.101000
      8 C19          3.8100     1.0630     0.7640 ca         1 70Z      -0.165000
      9 C20          4.5380    -0.3560    -1.0230 ca         1 70Z      -0.165000
     10 C21          2.5180     0.5850     0.6080 ca         1 70Z      -0.064000
     11 N23          6.1690     1.0240     0.1330 nh         1 70Z      -0.788400
     12 C30         -4.6200     2.6930     0.1470 c3         1 70Z       0.095000
     13 C31         -5.9100     3.2120    -0.4770 c3         1 70Z      -0.101400
     14 C32         -6.0720     4.7130    -0.2700 c3         1 70Z      -0.072400
     15 C33         -3.7090     0.9940    -1.3730 c3         1 70Z       0.088300
     16 C34         -7.3690     5.2480    -0.8610 c3         1 70Z      -0.089100
     17 N2           0.8830    -0.8150    -0.5320 n          1 70Z      -0.225400
     18 O3           1.2840    -2.5280     0.8720 o          1 70Z      -0.614100
     19 C4          -0.9580    -2.2430     0.2340 ca         1 70Z      -0.226600
     20 C5          -1.9390    -1.2880     0.3150 ca         1 70Z       0.007000
     21 C6          -2.5920    -4.0610     0.3850 ca         1 70Z      -0.150000
     22 N12         -5.4120    -2.0340     0.6040 na         1 70Z       0.056500
     23 N13         -4.9220    -3.2600     0.5420 nc         1 70Z      -0.273400
     24 O15         -5.7160     0.6390     1.5860 o          1 70Z      -0.591100
     25 C17          3.2470    -0.8230    -1.1750 ca         1 70Z      -0.064000
     26 C18          4.8590     0.5980    -0.0410 ca         1 70Z       0.313000
     27 N24         -4.3670     1.2830    -0.1150 n          1 70Z      -0.393800
     28 C25          6.4470     1.9970     1.1730 c6         1 70Z       0.162800
     29 C26          7.9370     2.0570     1.4530 c6         1 70Z       0.146100
     30 O27          8.6850     2.3280     0.2910 os         1 70Z      -0.443000
     31 C28          8.4530     1.3310    -0.6760 c6         1 70Z       0.146100
     32 C29          6.9870     1.2440    -1.0520 c6         1 70Z       0.162800
     33 H1           3.9790     1.8150     1.5210 ha         1 70Z       0.116000
     34 H2           5.3030    -0.7670    -1.6670 ha         1 70Z       0.116000
     35 H3           1.7310     0.9690     1.2450 ha         1 70Z       0.118500
     36 H4          -0.2120     0.8120    -1.3290 h1         1 70Z       0.042367
     37 H5           0.7890    -0.0820    -2.4740 h1         1 70Z       0.042367
     38 H6          -0.7150    -0.7880    -1.9080 h1         1 70Z       0.042367
     39 H7          -3.7650     3.2470    -0.2490 h1         1 70Z       0.058200
     40 H8          -4.6310     2.8590     1.2240 h1         1 70Z       0.058200
     41 H9          -5.9190     2.9910    -1.5500 hc         1 70Z       0.048700
     42 H10         -6.7620     2.6860    -0.0410 hc         1 70Z       0.048700
     43 H11         -6.0380     4.9380     0.8000 hc         1 70Z       0.038700
     44 H12         -5.2210     5.2350    -0.7180 hc         1 70Z       0.038700
     45 H13         -2.6560     1.2730    -1.3410 h1         1 70Z       0.044367
     46 H14         -3.7880    -0.0570    -1.6360 h1         1 70Z       0.044367
     47 H15         -4.1830     1.5650    -2.1720 h1         1 70Z       0.044367
     48 H16         -7.4160     5.0700    -1.9360 hc         1 70Z       0.034033
     49 H17         -8.2370     4.7650    -0.4080 hc         1 70Z       0.034033
     50 H18         -7.4670     6.3220    -0.7000 hc         1 70Z       0.034033
     51 H19         -1.6850    -0.2360     0.3350 ha         1 70Z       0.122000
     52 H20         -2.8310    -5.1140     0.4450 ha         1 70Z       0.148000
     53 H21          0.5210    -4.1400     0.5490 ho         1 70Z       0.505000
     54 H22         -6.4110    -1.9090     0.6950 hn         1 70Z       0.386000
     55 H23          3.0400    -1.5660    -1.9360 ha         1 70Z       0.118500
     56 H24          6.0720     2.9960     0.9040 h1         1 70Z       0.048450
     57 H25          5.9550     1.7010     2.1010 h1         1 70Z       0.048450
     58 H26          8.1400     2.8520     2.1720 h1         1 70Z       0.054950
     59 H27          8.2570     1.1050     1.9000 h1         1 70Z       0.054950
     60 H28          9.0410     1.5810    -1.5600 h1         1 70Z       0.054950
     61 H29          8.7910     0.3520    -0.3070 h1         1 70Z       0.054950
     62 H30          6.8760     0.4210    -1.7540 h1         1 70Z       0.048450
     63 H31          6.6780     2.1630    -1.5700 h1         1 70Z       0.048450
     64 O8          -0.3190    -4.5730     0.3050 oh         1 70Z      -0.548100
     65 C22          0.1360    -0.1840    -1.6090 c3         1 70Z       0.099300
@<TRIPOS>BOND
     1     1    17 1   
     2     1    18 2   
     3     1    19 1   
     4     2    19 ar  
     5     2    21 ar  
     6     2    64 1   
     7     3     4 ar  
     8     3    21 ar  
     9     3    23 2   
    10     4     5 2   
    11     4    20 ar  
    12     5     6 1   
    13     5    22 1   
    14     6    24 2   
    15     6    27 1   
    16     7    10 ar  
    17     7    17 1   
    18     7    25 ar  
    19     8    10 ar  
    20     8    26 ar  
    21     8    33 1   
    22     9    25 ar  
    23     9    26 ar  
    24     9    34 1   
    25    10    35 1   
    26    11    26 1   
    27    11    28 1   
    28    11    32 1   
    29    12    13 1   
    30    12    27 1   
    31    12    39 1   
    32    12    40 1   
    33    13    14 1   
    34    13    41 1   
    35    13    42 1   
    36    14    16 1   
    37    14    43 1   
    38    14    44 1   
    39    15    27 1   
    40    15    45 1   
    41    15    46 1   
    42    15    47 1   
    43    16    48 1   
    44    16    49 1   
    45    16    50 1   
    46    17    65 1   
    47    19    20 ar  
    48    20    51 1   
    49    21    52 1   
    50    22    23 1   
    51    22    54 1   
    52    25    55 1   
    53    28    29 1   
    54    28    56 1   
    55    28    57 1   
    56    29    30 1   
    57    29    58 1   
    58    29    59 1   
    59    30    31 1   
    60    31    32 1   
    61    31    60 1   
    62    31    61 1   
    63    32    62 1   
    64    32    63 1   
    65    36    65 1   
    66    37    65 1   
    67    38    65 1   
    68    53    64 1   
@<TRIPOS>SUBSTRUCTURE
     1 70Z         1 TEMP              0 ****  ****    0 ROOT
