@<TRIPOS>MOLECULE
710
   57    62     1     0     0
SMALL
No Charge or Current Charge


@<TRIPOS>ATOM
      1 C           -4.0360     0.7280     0.3980 ca         1 710      -0.121000
      2 C1          -5.0470    -0.2400     0.1260 ca         1 710      -0.067500
      3 C2          -4.6360    -1.4850    -0.4260 ca         1 710      -0.098000
      4 C3          -2.6800     0.4930     0.0840 ca         1 710      -0.049000
      5 C4          -2.3420    -0.7370    -0.4960 ca         1 710      -0.215900
      6 C5          -3.2840    -1.6850    -0.7290 ca         1 710      -0.041200
      7 N           -2.6670    -2.7940    -1.2710 na         1 710      -0.052400
      8 N6          -1.2850    -2.5730    -1.3950 nc         1 710      -0.496100
      9 C7          -1.0840    -1.3260    -0.9280 cd         1 710       0.414200
     10 C8           0.2400    -0.7380    -0.9050 cd         1 710      -0.089700
     11 N9           0.5690     0.5610    -0.4480 na         1 710      -0.216700
     12 C10          1.3860    -1.3940    -1.3440 cc         1 710      -0.196200
     13 C11          2.4660    -0.4740    -1.1530 ca         1 710      -0.107800
     14 C12          1.9410     0.6730    -0.6200 ca         1 710      -0.041200
     15 C13          2.7570     1.7700    -0.3160 ca         1 710      -0.138000
     16 C14          4.1410     1.6640    -0.5750 ca         1 710      -0.064000
     17 C15          4.6850     0.4760    -1.1270 ca         1 710      -0.118300
     18 C16          3.8340    -0.6140    -1.4220 ca         1 710      -0.054000
     19 C17          6.1830     0.3780    -1.4000 c3         1 710       0.220100
     20 N18          7.0100     0.4090    -0.1710 n3         1 710      -0.721600
     21 C19          8.4640     0.5030    -0.4790 c6         1 710       0.167800
     22 C20          9.3150     0.6550     0.8060 c6         1 710      -0.074900
     23 C21          9.0410    -0.5030     1.7930 c6         1 710      -0.075400
     24 C22          7.5240    -0.6160     2.0700 c6         1 710      -0.074900
     25 C23          6.7220    -0.7300     0.7500 c6         1 710       0.167800
     26 C24         -6.4810    -0.0430     0.4670 cc         1 710       0.280500
     27 C25         -7.1920     1.1500     0.7800 cc         1 710       0.218300
     28 N26         -8.4500     0.8970     1.0820 nd         1 710      -0.494800
     29 N27         -8.4870    -0.4840     0.9550 na         1 710       0.121600
     30 N28         -7.2910    -1.0810     0.5760 nd         1 710      -0.499800
     31 C29         -6.6740     2.5740     0.6900 c3         1 710       0.142300
     32 O           -6.1650     3.0600     1.9480 oh         1 710      -0.647000
     33 H           -4.2680     1.6620     0.8920 ha         1 710       0.112000
     34 H2          -5.3530    -2.2770    -0.6340 ha         1 710       0.134000
     35 H3          -1.9330     1.2480     0.3080 ha         1 710       0.114000
     36 HN          -3.1100    -3.6680    -1.5510 hn         1 710       0.381000
     37 HN9         -0.0590     1.2640    -0.0780 hn         1 710       0.349000
     38 H10          1.4350    -2.4030    -1.7480 ha         1 710       0.213000
     39 H13          2.3390     2.6800     0.1090 ha         1 710       0.112000
     40 H14          4.7970     2.5000    -0.3430 ha         1 710       0.124000
     41 H16          4.2250    -1.5370    -1.8440 ha         1 710       0.112000
     42 H171         6.3890    -0.5410    -1.9670 h1         1 710       0.034200
     43 H172         6.4590     1.2190    -2.0510 h1         1 710       0.034200
     44 H191         8.7950    -0.3940    -1.0240 h1         1 710       0.030700
     45 H192         8.6590     1.3670    -1.1320 h1         1 710       0.030700
     46 H201        10.3810     0.6820     0.5460 hc         1 710       0.044700
     47 H202         9.0840     1.6160     1.2870 hc         1 710       0.044700
     48 H211         9.4120    -1.4470     1.3700 hc         1 710       0.037700
     49 H212         9.5870    -0.3390     2.7320 hc         1 710       0.037700
     50 H221         7.3220    -1.4890     2.7050 hc         1 710       0.044700
     51 H222         7.1820     0.2650     2.6300 hc         1 710       0.044700
     52 H231         5.6520    -0.7660     1.0000 h1         1 710       0.030700
     53 H232         6.9710    -1.6840     0.2610 h1         1 710       0.030700
     54 H27         -9.3390    -1.0260     1.1250 hn         1 710       0.404000
     55 H291        -7.5040     3.2140     0.3610 h1         1 710       0.038200
     56 H292        -5.9130     2.6390    -0.0980 h1         1 710       0.038200
     57 HO          -5.9510     4.0120     1.8260 ho         1 710       0.446000
@<TRIPOS>BOND
     1     1     2 ar  
     2     1     4 ar  
     3     1    33 1   
     4     2     3 ar  
     5     2    26 1   
     6     3     6 ar  
     7     3    34 1   
     8     4     5 ar  
     9     4    35 1   
    10     5     6 ar  
    11     5     9 1   
    12     6     7 1   
    13     7     8 1   
    14     7    36 1   
    15     8     9 2   
    16     9    10 1   
    17    10    11 1   
    18    10    12 2   
    19    11    14 1   
    20    11    37 1   
    21    12    13 1   
    22    12    38 1   
    23    13    14 ar  
    24    13    18 ar  
    25    14    15 ar  
    26    15    16 ar  
    27    15    39 1   
    28    16    17 ar  
    29    16    40 1   
    30    17    18 ar  
    31    17    19 1   
    32    18    41 1   
    33    19    20 1   
    34    19    42 1   
    35    19    43 1   
    36    20    21 1   
    37    20    25 1   
    38    21    22 1   
    39    21    44 1   
    40    21    45 1   
    41    22    23 1   
    42    22    46 1   
    43    22    47 1   
    44    23    24 1   
    45    23    48 1   
    46    23    49 1   
    47    24    25 1   
    48    24    50 1   
    49    24    51 1   
    50    25    52 1   
    51    25    53 1   
    52    26    27 1   
    53    26    30 2   
    54    27    28 2   
    55    27    31 1   
    56    28    29 1   
    57    29    30 1   
    58    29    54 1   
    59    31    32 1   
    60    31    55 1   
    61    31    56 1   
    62    32    57 1   
@<TRIPOS>SUBSTRUCTURE
     1 710         1 TEMP              0 ****  ****    0 ROOT
