@<TRIPOS>MOLECULE
710
   57    62     1     0     0
SMALL
abcg2


@<TRIPOS>ATOM
      1 C           -4.0650     0.9060    -0.2630 ca         1 710      -0.121000
      2 C1          -5.0700    -0.0900    -0.2130 ca         1 710      -0.067500
      3 C2          -4.7340    -1.4260    -0.3210 ca         1 710      -0.098000
      4 C3          -2.7360     0.5880    -0.3940 ca         1 710      -0.049000
      5 C4          -2.3720    -0.7630    -0.4720 ca         1 710      -0.215900
      6 C5          -3.3810    -1.7400    -0.4550 ca         1 710      -0.041200
      7 N           -2.7490    -2.9290    -0.5870 na         1 710      -0.052400
      8 N6          -1.4290    -2.7970    -0.6710 nc         1 710      -0.496100
      9 C7          -1.1630    -1.5100    -0.6080 cd         1 710       0.414200
     10 C8           0.2050    -1.0380    -0.6900 cd         1 710      -0.089700
     11 N9           0.5830     0.1720    -0.1650 na         1 710      -0.216700
     12 C10          1.2990    -1.6460    -1.2520 cc         1 710      -0.196200
     13 C11          2.4090    -0.7760    -1.0500 ca         1 710      -0.107800
     14 C12          1.9230     0.3510    -0.3560 ca         1 710      -0.041200
     15 C13          2.7600     1.4000     0.0250 ca         1 710      -0.138000
     16 C14          4.0950     1.3020    -0.3040 ca         1 710      -0.064000
     17 C15          4.6120     0.1910    -1.0040 ca         1 710      -0.118300
     18 C16          3.7720    -0.8410    -1.3710 ca         1 710      -0.054000
     19 C17          6.0770     0.1580    -1.3550 c3         1 710       0.220100
     20 N18          6.9310     0.4060    -0.2110 n3         1 710      -0.721600
     21 C19          8.3030     0.6530    -0.6170 c6         1 710       0.167800
     22 C20          9.1730     1.0250     0.5740 c6         1 710      -0.074900
     23 C21          9.1170    -0.0560     1.6450 c6         1 710      -0.075400
     24 C22          7.6670    -0.3490     2.0090 c6         1 710      -0.074900
     25 C23          6.8490    -0.6650     0.7660 c6         1 710       0.167800
     26 C24         -6.4770     0.2890    -0.0650 cc         1 710       0.280500
     27 C25         -7.0800     1.3870     0.5840 cc         1 710       0.218300
     28 N26         -8.3910     1.2580     0.4610 nd         1 710      -0.494800
     29 N27         -8.5440     0.1590    -0.2250 na         1 710       0.121600
     30 N28         -7.4510    -0.4640    -0.5620 nd         1 710      -0.499800
     31 C29         -6.4780     2.5210     1.3420 c3         1 710       0.142300
     32 O           -5.6230     1.9970     2.3310 oh         1 710      -0.647000
     33 H           -4.3460     1.9490    -0.2260 ha         1 710       0.112000
     34 H2          -5.4890    -2.2010    -0.2910 ha         1 710       0.134000
     35 H3          -2.0000     1.3800    -0.4480 ha         1 710       0.114000
     36 HN          -3.1570    -3.8500    -0.5970 hn         1 710       0.381000
     37 HN9          0.0060     0.7630     0.4090 hn         1 710       0.349000
     38 H10          1.2960    -2.5940    -1.7680 ha         1 710       0.213000
     39 H13          2.3770     2.2600     0.5600 ha         1 710       0.112000
     40 H14          4.7730     2.0930    -0.0120 ha         1 710       0.124000
     41 H16          4.1700    -1.7050    -1.8940 ha         1 710       0.112000
     42 H171         6.3120    -0.8020    -1.8450 h1         1 710       0.034200
     43 H172         6.2830     0.9370    -2.0970 h1         1 710       0.034200
     44 H191         8.7410    -0.2280    -1.1220 h1         1 710       0.030700
     45 H192         8.3090     1.4660    -1.3480 h1         1 710       0.030700
     46 H201        10.1990     1.1840     0.2340 hc         1 710       0.044700
     47 H202         8.8240     1.9750     0.9890 hc         1 710       0.044700
     48 H211         9.5880    -0.9700     1.2660 hc         1 710       0.037700
     49 H212         9.6840     0.2450     2.5290 hc         1 710       0.037700
     50 H221         7.6010    -1.1890     2.7040 hc         1 710       0.044700
     51 H222         7.2300     0.5180     2.5130 hc         1 710       0.044700
     52 H231         5.8030    -0.8120     1.0410 h1         1 710       0.030700
     53 H232         7.1990    -1.6220     0.3350 h1         1 710       0.030700
     54 H27         -9.4560    -0.1910    -0.4790 hn         1 710       0.404000
     55 H291        -7.2900     3.1190     1.7700 h1         1 710       0.038200
     56 H292        -5.9390     3.1800     0.6510 h1         1 710       0.038200
     57 HO          -5.0190     2.6940     2.6020 ho         1 710       0.446000
@<TRIPOS>BOND
     1     1     2 ar  
     2     1     4 ar  
     3     1    33 1   
     4     2     3 ar  
     5     2    26 1   
     6     3     6 ar  
     7     3    34 1   
     8     4     5 ar  
     9     4    35 1   
    10     5     6 ar  
    11     5     9 1   
    12     6     7 1   
    13     7     8 1   
    14     7    36 1   
    15     8     9 2   
    16     9    10 1   
    17    10    11 1   
    18    10    12 2   
    19    11    14 1   
    20    11    37 1   
    21    12    13 1   
    22    12    38 1   
    23    13    14 ar  
    24    13    18 ar  
    25    14    15 ar  
    26    15    16 ar  
    27    15    39 1   
    28    16    17 ar  
    29    16    40 1   
    30    17    18 ar  
    31    17    19 1   
    32    18    41 1   
    33    19    20 1   
    34    19    42 1   
    35    19    43 1   
    36    20    21 1   
    37    20    25 1   
    38    21    22 1   
    39    21    44 1   
    40    21    45 1   
    41    22    23 1   
    42    22    46 1   
    43    22    47 1   
    44    23    24 1   
    45    23    48 1   
    46    23    49 1   
    47    24    25 1   
    48    24    50 1   
    49    24    51 1   
    50    25    52 1   
    51    25    53 1   
    52    26    27 1   
    53    26    30 2   
    54    27    28 2   
    55    27    31 1   
    56    28    29 1   
    57    29    30 1   
    58    29    54 1   
    59    31    32 1   
    60    31    55 1   
    61    31    56 1   
    62    32    57 1   
@<TRIPOS>SUBSTRUCTURE
     1 710         1 TEMP              0 ****  ****    0 ROOT
