@<TRIPOS>MOLECULE
711
   65    69     1     0     0
SMALL
No Charge or Current Charge


@<TRIPOS>ATOM
      1 N1          -7.3990     1.4280    -3.1890 n2         1 711      -0.824100
      2 C1          -7.3590     1.7920    -1.9740 ce         1 711       0.655800
      3 N2          -8.4870     2.2860    -1.4180 nv         1 711      -1.075200
      4 C2          -6.1580     1.5950    -1.0950 ca         1 711      -0.123900
      5 C3          -5.1440     0.6840    -1.4710 ca         1 711      -0.052000
      6 C4          -3.9960     0.5100    -0.6750 ca         1 711      -0.055000
      7 C5          -3.0020    -0.4130    -1.0550 ca         1 711      -0.054000
      8 C6          -1.8520    -0.5940    -0.2590 ca         1 711      -0.162300
      9 C7          -1.7030     0.1660     0.9190 ca         1 711      -0.108000
     10 C8          -2.6910     1.0890     1.3000 ca         1 711      -0.076000
     11 C9          -3.8390     1.2620     0.5060 ca         1 711      -0.014000
     12 C10         -4.8290     2.1880     0.8780 ca         1 711      -0.107000
     13 C11         -5.9750     2.3590     0.0820 ca         1 711      -0.069000
     14 C12         -0.7870    -1.6030    -0.6850 c3         1 711       0.119900
     15 N21         -0.2920    -2.4430     0.4220 na         1 711      -0.117500
     16 C21         -0.8980    -3.5800     0.9710 cc         1 711       0.315800
     17 C22         -2.2090    -4.1840     0.5640 c3         1 711      -0.150400
     18 N22         -0.0470    -4.0380     1.9800 na         1 711      -0.233600
     19 C23          1.0400    -3.1880     2.0450 ca         1 711      -0.093200
     20 C24          2.1390    -3.2250     2.9100 ca         1 711      -0.057000
     21 C25          3.1120    -2.2120     2.7750 ca         1 711      -0.090000
     22 C26          2.9770    -1.1960     1.7990 ca         1 711       0.178100
     23 C27          1.8420    -1.1830     0.9460 ca         1 711      -0.146000
     24 C28          0.8950    -2.2090     1.0960 ca         1 711      -0.044200
     25 O            3.9710    -0.2350     1.7470 os         1 711      -0.352100
     26 C31          4.0860     0.7000     0.6530 c6         1 711       0.181300
     27 C32          4.5440    -0.0170    -0.6470 c6         1 711      -0.128400
     28 C33          4.8170     1.0110    -1.7710 c6         1 711       0.205800
     29 N31          5.8450     1.9880    -1.3110 nh         1 711      -0.780600
     30 C34          5.3330     2.7700    -0.1450 c6         1 711       0.205800
     31 C35          5.0960     1.8070     1.0400 c6         1 711      -0.128400
     32 C36          7.2040     1.7670    -1.5200 c2         1 711       0.615200
     33 N32          8.0170     2.6660    -1.1350 n2         1 711      -0.811100
     34 C37          7.6750     0.5980    -2.3560 c3         1 711      -0.139400
     35 HN1         -8.2190     1.8660    -3.6230 hn         1 711       0.385400
     36 HN21        -8.5070     2.2650    -0.4040 hn         1 711       0.467500
     37 HN2A        -9.3580     2.0250    -1.8650 hn         1 711       0.467500
     38 H3          -5.2520     0.1000    -2.3830 ha         1 711       0.143000
     39 H5          -3.1250    -0.9910    -1.9680 ha         1 711       0.116000
     40 H7          -0.8210     0.0480     1.5450 ha         1 711       0.114000
     41 H8          -2.5620     1.6690     2.2110 ha         1 711       0.131000
     42 H10         -4.7100     2.7820     1.7820 ha         1 711       0.128000
     43 H11         -6.7110     3.1010     0.3840 ha         1 711       0.134000
     44 H121         0.0530    -1.0700    -1.1470 h1         1 711       0.087700
     45 H122        -1.1970    -2.2670    -1.4560 h1         1 711       0.087700
     46 H221        -2.9980    -3.4230     0.5570 hc         1 711       0.097367
     47 H222        -2.1400    -4.6160    -0.4400 hc         1 711       0.097367
     48 H223        -2.5110    -4.9770     1.2570 hc         1 711       0.097367
     49 HN22        -0.2140    -4.8500     2.5640 hn         1 711       0.401000
     50 H24          2.2420    -4.0040     3.6630 ha         1 711       0.151000
     51 H25          3.9790    -2.2070     3.4300 ha         1 711       0.161000
     52 H27          1.6920    -0.4060     0.2060 ha         1 711       0.153000
     53 H31          3.1130     1.1850     0.4890 h1         1 711       0.036700
     54 H321         5.4510    -0.6010    -0.4470 hc         1 711       0.064950
     55 H322         3.7830    -0.7290    -0.9880 hc         1 711       0.064950
     56 H331         3.8760     1.5380    -1.9920 h1         1 711       0.062200
     57 H332         5.1070     0.5030    -2.7020 h1         1 711       0.062200
     58 H341         6.0050     3.5860     0.1540 h1         1 711       0.062200
     59 H342         4.3730     3.2430    -0.4050 h1         1 711       0.062200
     60 H351         6.0490     1.3570     1.3490 hc         1 711       0.064950
     61 H352         4.7160     2.3700     1.9030 hc         1 711       0.064950
     62 HN32         7.4580     3.3990    -0.6920 hn         1 711       0.374400
     63 H371         7.3300    -0.3550    -1.9430 hc         1 711       0.058367
     64 H372         7.3140     0.6820    -3.3870 hc         1 711       0.058367
     65 H373         8.7700     0.5560    -2.3960 hc         1 711       0.058367
@<TRIPOS>BOND
     1     1     2 2   
     2     1    35 1   
     3     2     3 1   
     4     2     4 1   
     5     3    36 1   
     6     3    37 1   
     7     4     5 ar  
     8     4    13 ar  
     9     5     6 ar  
    10     5    38 1   
    11     6     7 ar  
    12     6    11 ar  
    13     7     8 ar  
    14     7    39 1   
    15     8     9 ar  
    16     8    14 1   
    17     9    10 ar  
    18     9    40 1   
    19    10    11 ar  
    20    10    41 1   
    21    11    12 ar  
    22    12    13 ar  
    23    12    42 1   
    24    13    43 1   
    25    14    15 1   
    26    14    44 1   
    27    14    45 1   
    28    15    16 2   
    29    15    24 1   
    30    16    17 1   
    31    16    18 1   
    32    17    46 1   
    33    17    47 1   
    34    17    48 1   
    35    18    19 1   
    36    18    49 1   
    37    19    20 ar  
    38    19    24 ar  
    39    20    21 ar  
    40    20    50 1   
    41    21    22 ar  
    42    21    51 1   
    43    22    23 ar  
    44    22    25 1   
    45    23    24 ar  
    46    23    52 1   
    47    25    26 1   
    48    26    27 1   
    49    26    31 1   
    50    26    53 1   
    51    27    28 1   
    52    27    54 1   
    53    27    55 1   
    54    28    29 1   
    55    28    56 1   
    56    28    57 1   
    57    29    30 1   
    58    29    32 1   
    59    30    31 1   
    60    30    58 1   
    61    30    59 1   
    62    31    60 1   
    63    31    61 1   
    64    32    33 2   
    65    32    34 1   
    66    33    62 1   
    67    34    63 1   
    68    34    64 1   
    69    34    65 1   
@<TRIPOS>SUBSTRUCTURE
     1 711         1 TEMP              0 ****  ****    0 ROOT
