@<TRIPOS>MOLECULE
711
   65    69     1     0     0
SMALL
bcc


@<TRIPOS>ATOM
      1 N1          -8.4050     0.7980    -2.1390 n2         1 711      -0.824100
      2 C1          -8.2500     1.1200    -0.9130 ce         1 711       0.655800
      3 N2          -9.2430     1.4260    -0.0280 nv         1 711      -0.964800
      4 C2          -6.8650     1.2340    -0.3750 ca         1 711      -0.123900
      5 C3          -5.8540     0.5140    -0.9610 ca         1 711      -0.070000
      6 C4          -4.5310     0.5920    -0.4800 ca         1 711      -0.055000
      7 C5          -3.4840    -0.1590    -1.0660 ca         1 711      -0.072000
      8 C6          -2.2040    -0.0740    -0.5920 ca         1 711      -0.162300
      9 C7          -1.9170     0.7780     0.5020 ca         1 711      -0.126000
     10 C8          -2.9070     1.5090     1.0930 ca         1 711      -0.094000
     11 C9          -4.2390     1.4360     0.6200 ca         1 711      -0.014000
     12 C10         -5.2900     2.1770     1.2020 ca         1 711      -0.125000
     13 C11         -6.5660     2.0790     0.7210 ca         1 711      -0.087000
     14 C12         -1.1050    -0.8790    -1.2270 c3         1 711       0.090600
     15 N21         -0.5070    -1.8190    -0.2850 na         1 711      -0.088200
     16 C21         -1.0570    -2.9730     0.0990 cc         1 711       0.315800
     17 C22         -2.3330    -3.5230    -0.3910 c3         1 711      -0.150400
     18 N22         -0.2720    -3.5370     1.0050 na         1 711      -0.183300
     19 C23          0.8260    -2.7370     1.2390 ca         1 711      -0.093200
     20 C24          1.9150    -2.8620     2.0880 ca         1 711      -0.075000
     21 C25          2.8490    -1.8460     2.0590 ca         1 711      -0.108000
     22 C26          2.6990    -0.7290     1.2190 ca         1 711       0.178100
     23 C27          1.6030    -0.6010     0.3780 ca         1 711      -0.164000
     24 C28          0.6770    -1.6330     0.4070 ca         1 711      -0.044200
     25 O            3.6390     0.2430     1.2900 os         1 711      -0.328900
     26 C31          4.3430     0.5680     0.0870 c6         1 711       0.158100
     27 C32          5.4200    -0.4680    -0.2110 c6         1 711      -0.128400
     28 C33          6.2670    -0.0190    -1.4010 c6         1 711       0.205800
     29 N31          6.8350     1.2990    -1.1690 nh         1 711      -0.780600
     30 C34          5.7880     2.2840    -0.9740 c6         1 711       0.205800
     31 C35          4.9410     1.9540     0.2540 c6         1 711      -0.128400
     32 C36          8.0620     1.4580    -0.5650 c2         1 711       0.615200
     33 N32          8.4900     2.5080     0.0280 n2         1 711      -0.811100
     34 C37          9.0110     0.2940    -0.6630 c3         1 711      -0.139400
     35 HN1         -9.3900     0.7130    -2.3760 hn         1 711       0.385400
     36 HN21        -9.0760     1.2800     0.9540 hn         1 711       0.412300
     37 HN2A       -10.1910     1.2320    -0.3090 hn         1 711       0.412300
     38 H3          -6.0730    -0.1310    -1.8030 ha         1 711       0.161000
     39 H5          -3.7120    -0.8060    -1.9060 ha         1 711       0.134000
     40 H7          -0.9030     0.8580     0.8750 ha         1 711       0.132000
     41 H8          -2.6800     2.1570     1.9300 ha         1 711       0.149000
     42 H10         -5.0760     2.8340     2.0370 ha         1 711       0.146000
     43 H11         -7.3460     2.6760     1.1770 ha         1 711       0.152000
     44 H121        -0.3020    -0.2420    -1.5960 h1         1 711       0.087700
     45 H122        -1.4740    -1.4370    -2.0870 h1         1 711       0.087700
     46 H221        -3.1700    -2.9660     0.0290 hc         1 711       0.097367
     47 H222        -2.3910    -3.4600    -1.4760 hc         1 711       0.097367
     48 H223        -2.4330    -4.5650    -0.0990 hc         1 711       0.097367
     49 HN22        -0.4650    -4.4270     1.4450 hn         1 711       0.350700
     50 H24          2.0360    -3.7190     2.7370 ha         1 711       0.169000
     51 H25          3.7200    -1.8990     2.6990 ha         1 711       0.179000
     52 H27          1.4760     0.2670    -0.2560 ha         1 711       0.171000
     53 H31          3.6400     0.6000    -0.7560 h1         1 711       0.036700
     54 H321         6.0610    -0.5900     0.6670 hc         1 711       0.064950
     55 H322         4.9710    -1.4410    -0.4290 hc         1 711       0.064950
     56 H331         5.6490     0.0300    -2.3030 h1         1 711       0.062200
     57 H332         7.0450    -0.7480    -1.6070 h1         1 711       0.062200
     58 H341         6.2010     3.2890    -0.9060 h1         1 711       0.062200
     59 H342         5.1590     2.2840    -1.8690 h1         1 711       0.062200
     60 H351         5.5640     1.9910     1.1530 hc         1 711       0.064950
     61 H352         4.1490     2.6970     0.3680 hc         1 711       0.064950
     62 HN32         7.7970     3.2470     0.0820 hn         1 711       0.374400
     63 H371         8.6690    -0.5590    -0.0750 hc         1 711       0.058367
     64 H372         9.1380    -0.0470    -1.6910 hc         1 711       0.058367
     65 H373         9.9800     0.5990    -0.2770 hc         1 711       0.058367
@<TRIPOS>BOND
     1     1     2 2   
     2     1    35 1   
     3     2     3 1   
     4     2     4 1   
     5     3    36 1   
     6     3    37 1   
     7     4     5 ar  
     8     4    13 ar  
     9     5     6 ar  
    10     5    38 1   
    11     6     7 ar  
    12     6    11 ar  
    13     7     8 ar  
    14     7    39 1   
    15     8     9 ar  
    16     8    14 1   
    17     9    10 ar  
    18     9    40 1   
    19    10    11 ar  
    20    10    41 1   
    21    11    12 ar  
    22    12    13 ar  
    23    12    42 1   
    24    13    43 1   
    25    14    15 1   
    26    14    44 1   
    27    14    45 1   
    28    15    16 2   
    29    15    24 1   
    30    16    17 1   
    31    16    18 1   
    32    17    46 1   
    33    17    47 1   
    34    17    48 1   
    35    18    19 1   
    36    18    49 1   
    37    19    20 ar  
    38    19    24 ar  
    39    20    21 ar  
    40    20    50 1   
    41    21    22 ar  
    42    21    51 1   
    43    22    23 ar  
    44    22    25 1   
    45    23    24 ar  
    46    23    52 1   
    47    25    26 1   
    48    26    27 1   
    49    26    31 1   
    50    26    53 1   
    51    27    28 1   
    52    27    54 1   
    53    27    55 1   
    54    28    29 1   
    55    28    56 1   
    56    28    57 1   
    57    29    30 1   
    58    29    32 1   
    59    30    31 1   
    60    30    58 1   
    61    30    59 1   
    62    31    60 1   
    63    31    61 1   
    64    32    33 2   
    65    32    34 1   
    66    33    62 1   
    67    34    63 1   
    68    34    64 1   
    69    34    65 1   
@<TRIPOS>SUBSTRUCTURE
     1 711         1 TEMP              0 ****  ****    0 ROOT
