@<TRIPOS>MOLECULE
712
   70    72     1     0     0
SMALL
No Charge or Current Charge


@<TRIPOS>ATOM
      1 C           31.1490    38.1240     3.3530 c3         1 712       0.131200
      2 N           31.7600    39.0080     4.3970 n8         1 712      -0.985200
      3 C1          29.6270    38.4670     3.0440 c          1 712       0.604100
      4 O           29.4650    39.7770     2.6770 os         1 712      -0.434100
      5 O2          28.6980    37.6730     3.1470 o          1 712      -0.494000
      6 C3          31.2530    36.6700     3.8890 c3         1 712      -0.080100
      7 C4          31.9950    38.2470     2.0400 c3         1 712      -0.070100
      8 C5          32.2540    39.6710     1.5300 ca         1 712      -0.083300
      9 C6          33.3250    40.4310     2.0420 ca         1 712      -0.105500
     10 C7          32.7380    42.2870     0.5790 ca         1 712      -0.121000
     11 C8          31.6810    41.5310     0.0490 ca         1 712      -0.112500
     12 C9          33.5660    41.7330     1.5690 ca         1 712      -0.112500
     13 C10         31.4460    40.2250     0.5140 ca         1 712      -0.105500
     14 C11         28.5870    44.0570     0.3170 ca         1 712      -0.072000
     15 C12         29.3490    43.8080     1.4810 ca         1 712      -0.146600
     16 C13         29.1830    42.5700     2.1450 ca         1 712      -0.057000
     17 C14         28.2920    41.5990     1.6470 ca         1 712      -0.093300
     18 C15         27.5510    41.8710     0.4820 ca         1 712      -0.031000
     19 C16         27.6850    43.1020    -0.1850 ca         1 712       0.221000
     20 N17         26.9480    43.3740    -1.3540 nh         1 712      -0.758300
     21 N19         31.1440    44.4990     3.0110 ns         1 712      -0.498900
     22 O20         30.3460    45.9910     1.4990 o          1 712      -0.604100
     23 S           25.2300    43.5680    -1.2560 s6         1 712       1.226100
     24 C21         25.0230    44.9320    -0.1270 c3         1 712      -0.382100
     25 O22         24.6920    42.3560    -0.6300 o          1 712      -0.535000
     26 O23         24.7600    43.9840    -2.5810 o          1 712      -0.535000
     27 C24         27.6160    43.8720    -2.5730 c3         1 712       0.185100
     28 C25         32.1260    45.3700     3.6520 c3         1 712       0.161000
     29 C26         32.4880    44.8100     5.0250 ca         1 712      -0.119300
     30 C27         33.1170    43.5520     5.1480 ca         1 712      -0.071000
     31 C28         33.1330    43.7820     7.5680 ca         1 712       0.168000
     32 C29         32.5060    45.0320     7.4580 ca         1 712      -0.146500
     33 C30         33.4390    43.0400     6.4180 ca         1 712      -0.146500
     34 C31         32.1820    45.5450     6.1900 ca         1 712      -0.071000
     35 C32         33.3700    45.5780     2.7640 c3         1 712      -0.100100
     36 F           33.4430    43.2900     8.7870 f          1 712      -0.183000
     37 C33         28.1510    40.2470     2.3410 c3         1 712       0.212900
     38 HN1         31.8060    39.9570     4.0100 hn         1 712       0.407500
     39 HN2         31.1110    39.1030     5.1870 hn         1 712       0.407500
     40 H31A        30.8860    35.9520     3.1450 hc         1 712       0.052700
     41 H32         32.2920    36.4080     4.1230 hc         1 712       0.052700
     42 H33         30.6590    36.5440     4.8020 hc         1 712       0.052700
     43 H41         32.9650    37.7600     2.2020 hc         1 712       0.064700
     44 H42         31.5090    37.6550     1.2540 hc         1 712       0.064700
     45 H6          33.9740    40.0110     2.8080 ha         1 712       0.117000
     46 H7          32.9210    43.2970     0.2180 ha         1 712       0.114000
     47 H8          31.0410    41.9560    -0.7220 ha         1 712       0.114500
     48 H9          34.3970    42.3080     1.9700 ha         1 712       0.114500
     49 H10         30.6240    39.6500     0.0960 ha         1 712       0.117000
     50 H11         28.6910    45.0050    -0.2050 ha         1 712       0.141000
     51 H13         29.7430    42.3420     3.0480 ha         1 712       0.123000
     52 H15         26.8790    41.1190     0.0800 ha         1 712       0.148000
     53 HN19        31.0680    43.5490     3.3450 hn         1 712       0.317500
     54 H211        23.9490    45.1210    -0.0370 h1         1 712       0.103033
     55 H212        25.4570    44.6350     0.8320 h1         1 712       0.103033
     56 H213        25.5470    45.7920    -0.5550 h1         1 712       0.103033
     57 H241        27.2220    43.3670    -3.4650 h1         1 712       0.058700
     58 H242        27.4700    44.9550    -2.6840 h1         1 712       0.058700
     59 H243        28.6950    43.6720    -2.5320 h1         1 712       0.058700
     60 H25         31.6550    46.3530     3.7950 h1         1 712       0.082700
     61 H27         33.3550    42.9670     4.2630 ha         1 712       0.116000
     62 H29         32.2700    45.6000     8.3550 ha         1 712       0.133500
     63 H30         33.9230    42.0710     6.5100 ha         1 712       0.133500
     64 H31         31.6930    46.5140     6.1140 ha         1 712       0.116000
     65 H321        33.0960    46.0470     1.8120 hc         1 712       0.046033
     66 H322        34.0910    46.2320     3.2680 hc         1 712       0.046033
     67 H323        33.8650    44.6260     2.5460 hc         1 712       0.046033
     68 H331        27.6510    39.5450     1.6600 h1         1 712       0.061700
     69 H332        27.5300    40.3510     3.2410 h1         1 712       0.061700
     70 C18         30.3130    44.8650     1.9760 c          1 712       0.608700
@<TRIPOS>BOND
     1     1     2 1   
     2     1     3 1   
     3     1     6 1   
     4     1     7 1   
     5     2    38 1   
     6     2    39 1   
     7     3     4 1   
     8     3     5 2   
     9     4    37 1   
    10     6    40 1   
    11     6    41 1   
    12     6    42 1   
    13     7     8 1   
    14     7    43 1   
    15     7    44 1   
    16     8     9 ar  
    17     8    13 ar  
    18     9    12 ar  
    19     9    45 1   
    20    10    11 ar  
    21    10    12 ar  
    22    10    46 1   
    23    11    13 ar  
    24    11    47 1   
    25    12    48 1   
    26    13    49 1   
    27    14    15 ar  
    28    14    19 ar  
    29    14    50 1   
    30    15    16 ar  
    31    15    70 1   
    32    16    17 ar  
    33    16    51 1   
    34    17    18 ar  
    35    17    37 1   
    36    18    19 ar  
    37    18    52 1   
    38    19    20 1   
    39    20    23 1   
    40    20    27 1   
    41    21    28 1   
    42    21    53 1   
    43    21    70 1   
    44    22    70 2   
    45    23    24 1   
    46    23    25 2   
    47    23    26 2   
    48    24    54 1   
    49    24    55 1   
    50    24    56 1   
    51    27    57 1   
    52    27    58 1   
    53    27    59 1   
    54    28    29 1   
    55    28    35 1   
    56    28    60 1   
    57    29    30 ar  
    58    29    34 ar  
    59    30    33 ar  
    60    30    61 1   
    61    31    32 ar  
    62    31    33 ar  
    63    31    36 1   
    64    32    34 ar  
    65    32    62 1   
    66    33    63 1   
    67    34    64 1   
    68    35    65 1   
    69    35    66 1   
    70    35    67 1   
    71    37    68 1   
    72    37    69 1   
@<TRIPOS>SUBSTRUCTURE
     1 712         1 TEMP              0 ****  ****    0 ROOT
