@<TRIPOS>MOLECULE
712
   70    72     1     0     0
SMALL
abcg2


@<TRIPOS>ATOM
      1 C           30.3900    37.5490     2.4680 c3         1 712       0.131200
      2 N           29.8770    38.4010     3.5410 n8         1 712      -0.985200
      3 C1          30.0370    38.1410     1.1030 c          1 712       0.604100
      4 O           29.7870    39.4510     1.1610 os         1 712      -0.434100
      5 O2          30.0560    37.5100     0.0690 o          1 712      -0.494000
      6 C3          29.7650    36.1610     2.6070 c3         1 712      -0.080100
      7 C4          31.9520    37.4010     2.4810 c3         1 712      -0.070100
      8 C5          32.6940    38.6820     2.2190 ca         1 712      -0.083300
      9 C6          32.9790    39.5770     3.2520 ca         1 712      -0.105500
     10 C7          33.9700    41.1250     1.6900 ca         1 712      -0.121000
     11 C8          33.6990    40.2380     0.6530 ca         1 712      -0.112500
     12 C9          33.6100    40.7890     2.9920 ca         1 712      -0.112500
     13 C10         33.0700    39.0280     0.9180 ca         1 712      -0.105500
     14 C11         28.5280    44.1790     0.8230 ca         1 712      -0.072000
     15 C12         29.8540    43.7790     0.9940 ca         1 712      -0.146600
     16 C13         30.2200    42.4710     0.6890 ca         1 712      -0.057000
     17 C14         29.2670    41.5670     0.2160 ca         1 712      -0.093300
     18 C15         27.9510    41.9770     0.0480 ca         1 712      -0.031000
     19 C16         27.5770    43.2830     0.3560 ca         1 712       0.221000
     20 N17         26.2160    43.6940     0.1590 nh         1 712      -0.758300
     21 N19         31.9420    44.3970     2.0900 ns         1 712      -0.498900
     22 O20         30.5370    46.0210     1.3930 o          1 712      -0.604100
     23 S           25.1000    43.1820     1.2760 s6         1 712       1.226100
     24 C21         25.4310    44.0860     2.7680 c3         1 712      -0.382100
     25 O22         25.3500    41.7850     1.5360 o          1 712      -0.535000
     26 O23         23.8030    43.5780     0.7780 o          1 712      -0.535000
     27 C24         25.9940    45.0270    -0.4300 c3         1 712       0.185100
     28 C25         32.8620    45.3400     2.7230 c3         1 712       0.161000
     29 C26         32.3300    45.8390     4.0560 ca         1 712      -0.119300
     30 C27         31.7920    44.9570     4.9920 ca         1 712      -0.071000
     31 C28         31.4180    46.7650     6.4960 ca         1 712       0.168000
     32 C29         31.9480    47.6710     5.5980 ca         1 712      -0.146500
     33 C30         31.3280    45.4120     6.2210 ca         1 712      -0.146500
     34 C31         32.4030    47.1930     4.3720 ca         1 712      -0.071000
     35 C32         34.2420    44.7050     2.8730 c3         1 712      -0.100100
     36 F           30.9600    47.2210     7.6930 f          1 712      -0.183000
     37 C33         29.6500    40.1540    -0.1030 c3         1 712       0.212900
     38 HN1         30.1660    38.0110     4.4320 hn         1 712       0.407500
     39 HN2         30.2780    39.3300     3.4830 hn         1 712       0.407500
     40 H31A        30.1010    35.4990     1.8110 hc         1 712       0.052700
     41 H32         30.0610    35.7310     3.5660 hc         1 712       0.052700
     42 H33         28.6770    36.2280     2.5780 hc         1 712       0.052700
     43 H41         32.2090    37.0050     3.4660 hc         1 712       0.064700
     44 H42         32.2300    36.6540     1.7360 hc         1 712       0.064700
     45 H6          32.7110    39.3180     4.2690 ha         1 712       0.117000
     46 H7          34.4640    42.0650     1.4850 ha         1 712       0.114000
     47 H8          33.9790    40.4880    -0.3630 ha         1 712       0.114500
     48 H9          33.8240    41.4680     3.8080 ha         1 712       0.114500
     49 H10         32.8640    38.3410     0.1060 ha         1 712       0.117000
     50 H11         28.2600    45.1970     1.0640 ha         1 712       0.141000
     51 H13         31.2470    42.1390     0.7850 ha         1 712       0.123000
     52 H15         27.2080    41.2860    -0.3260 ha         1 712       0.148000
     53 HN19        32.0710    43.4130     2.2710 hn         1 712       0.317500
     54 H211        24.6920    43.7700     3.5020 h1         1 712       0.103033
     55 H212        26.4360    43.8390     3.1060 h1         1 712       0.103033
     56 H213        25.3370    45.1500     2.5630 h1         1 712       0.103033
     57 H241        24.9670    45.0920    -0.7740 h1         1 712       0.058700
     58 H242        26.1930    45.8400     0.2720 h1         1 712       0.058700
     59 H243        26.6630    45.1200    -1.2830 h1         1 712       0.058700
     60 H25         32.9390    46.1970     2.0550 h1         1 712       0.082700
     61 H27         31.7230    43.9010     4.7620 ha         1 712       0.116000
     62 H29         31.9950    48.7220     5.8490 ha         1 712       0.133500
     63 H30         30.9050    44.7360     6.9520 ha         1 712       0.133500
     64 H31         32.8120    47.8890     3.6500 ha         1 712       0.116000
     65 H321        34.6370    44.4100     1.8990 hc         1 712       0.046033
     66 H322        34.9260    45.4220     3.3240 hc         1 712       0.046033
     67 H323        34.1990    43.8260     3.5180 hc         1 712       0.046033
     68 H331        30.6070    40.0980    -0.6210 h1         1 712       0.061700
     69 H332        28.8880    39.6600    -0.7030 h1         1 712       0.061700
     70 C18         30.8050    44.8220     1.5040 c          1 712       0.608700
@<TRIPOS>BOND
     1     1     2 1   
     2     1     3 1   
     3     1     6 1   
     4     1     7 1   
     5     2    38 1   
     6     2    39 1   
     7     3     4 1   
     8     3     5 2   
     9     4    37 1   
    10     6    40 1   
    11     6    41 1   
    12     6    42 1   
    13     7     8 1   
    14     7    43 1   
    15     7    44 1   
    16     8     9 ar  
    17     8    13 ar  
    18     9    12 ar  
    19     9    45 1   
    20    10    11 ar  
    21    10    12 ar  
    22    10    46 1   
    23    11    13 ar  
    24    11    47 1   
    25    12    48 1   
    26    13    49 1   
    27    14    15 ar  
    28    14    19 ar  
    29    14    50 1   
    30    15    16 ar  
    31    15    70 1   
    32    16    17 ar  
    33    16    51 1   
    34    17    18 ar  
    35    17    37 1   
    36    18    19 ar  
    37    18    52 1   
    38    19    20 1   
    39    20    23 1   
    40    20    27 1   
    41    21    28 1   
    42    21    53 1   
    43    21    70 1   
    44    22    70 2   
    45    23    24 1   
    46    23    25 2   
    47    23    26 2   
    48    24    54 1   
    49    24    55 1   
    50    24    56 1   
    51    27    57 1   
    52    27    58 1   
    53    27    59 1   
    54    28    29 1   
    55    28    35 1   
    56    28    60 1   
    57    29    30 ar  
    58    29    34 ar  
    59    30    33 ar  
    60    30    61 1   
    61    31    32 ar  
    62    31    33 ar  
    63    31    36 1   
    64    32    34 ar  
    65    32    62 1   
    66    33    63 1   
    67    34    64 1   
    68    35    65 1   
    69    35    66 1   
    70    35    67 1   
    71    37    68 1   
    72    37    69 1   
@<TRIPOS>SUBSTRUCTURE
     1 712         1 TEMP              0 ****  ****    0 ROOT
