@<TRIPOS>MOLECULE
713
   45    47     1     0     0
SMALL
No Charge or Current Charge


@<TRIPOS>ATOM
      1 Cl1          4.3160    -2.3130     1.1210 cl         1 713      -0.176000
      2 C17          4.9050    -0.7800     0.4780 ca         1 713       0.156000
      3 C19          5.9280    -0.1130     1.1710 ca         1 713      -0.153000
      4 C20          6.4130     1.1110     0.6920 ca         1 713       0.188000
      5 F21          7.3980     1.7510     1.3600 f          1 713      -0.170000
      6 C22          5.8810     1.6770    -0.4750 ca         1 713      -0.155000
      7 C23          4.8560     1.0130    -1.1710 ca         1 713      -0.069000
      8 C16          4.3610    -0.2210    -0.7020 ca         1 713      -0.125300
      9 C15          3.2490    -0.9210    -1.4720 c3         1 713       0.151300
     10 N14          1.9440    -0.6560    -0.8710 ns         1 713      -0.504900
     11 C13          0.7650    -1.2210    -1.2960 c          1 713       0.618700
     12 O24          0.7450    -1.9950    -2.2440 o          1 713      -0.593100
     13 C12         -0.4900    -0.8380    -0.5360 ca         1 713      -0.142600
     14 C25         -1.7350    -1.3790    -0.9330 ca         1 713      -0.075000
     15 C26         -2.9170    -1.0450    -0.2510 ca         1 713      -0.101000
     16 C11         -0.4650     0.0470     0.5690 ca         1 713      -0.075000
     17 C10         -1.6500     0.3790     1.2490 ca         1 713      -0.101000
     18 C9          -2.8840    -0.1600     0.8430 ca         1 713      -0.097300
     19 C8          -4.1650     0.2140     1.5890 c3         1 713       0.129900
     20 N4          -5.3080     0.5270     0.7070 na         1 713       0.124800
     21 N3          -6.3940    -0.3300     0.6450 nc         1 713      -0.529800
     22 C2          -7.1920     0.2680    -0.2170 cd         1 713       0.261300
     23 C1          -8.5150    -0.3380    -0.5890 c3         1 713      -0.118400
     24 C7          -6.6540     1.4750    -0.7020 cd         1 713      -0.230000
     25 C5          -5.4390     1.6520    -0.1090 cc         1 713      -0.130300
     26 C6          -4.4320     2.7600    -0.2660 c3         1 713      -0.029800
     27 H1           6.3440    -0.5430     2.0770 ha         1 713       0.149000
     28 H2           6.2620     2.6280    -0.8380 ha         1 713       0.138000
     29 H3           4.4450     1.4600    -2.0750 ha         1 713       0.122000
     30 H4           3.2370    -0.5690    -2.5120 h1         1 713       0.069200
     31 H5           3.4260    -2.0050    -1.4940 h1         1 713       0.069200
     32 H6           1.8980    -0.0230    -0.0840 hn         1 713       0.316500
     33 H7          -1.7910    -2.0640    -1.7760 ha         1 713       0.126500
     34 H8          -3.8600    -1.4780    -0.5770 ha         1 713       0.124500
     35 H9           0.4650     0.4890     0.9190 ha         1 713       0.126500
     36 H10         -1.6040     1.0620     2.0950 ha         1 713       0.124500
     37 H11         -4.4460    -0.6150     2.2500 h1         1 713       0.074200
     38 H12         -3.9830     1.0890     2.2250 h1         1 713       0.074200
     39 H13         -9.0450     0.2880    -1.3160 hc         1 713       0.046367
     40 H14         -8.3810    -1.3300    -1.0370 hc         1 713       0.046367
     41 H15         -9.1590    -0.4480     0.2910 hc         1 713       0.046367
     42 H16         -7.1240     2.1400    -1.4180 ha         1 713       0.142000
     43 H17         -4.2000     3.2200     0.7020 hc         1 713       0.049700
     44 H18         -3.4970     2.3810    -0.6950 hc         1 713       0.049700
     45 H19         -4.8120     3.5460    -0.9290 hc         1 713       0.049700
@<TRIPOS>BOND
     1     1     2 1   
     2     2     3 ar  
     3     2     8 ar  
     4     3     4 ar  
     5     3    27 1   
     6     4     5 1   
     7     4     6 ar  
     8     6     7 ar  
     9     6    28 1   
    10     7     8 ar  
    11     7    29 1   
    12     8     9 1   
    13     9    10 1   
    14     9    30 1   
    15     9    31 1   
    16    10    11 1   
    17    10    32 1   
    18    11    12 2   
    19    11    13 1   
    20    13    14 ar  
    21    13    16 ar  
    22    14    15 ar  
    23    14    33 1   
    24    15    18 ar  
    25    15    34 1   
    26    16    17 ar  
    27    16    35 1   
    28    17    18 ar  
    29    17    36 1   
    30    18    19 1   
    31    19    20 1   
    32    19    37 1   
    33    19    38 1   
    34    20    21 1   
    35    20    25 1   
    36    21    22 2   
    37    22    23 1   
    38    22    24 1   
    39    23    39 1   
    40    23    40 1   
    41    23    41 1   
    42    24    25 2   
    43    24    42 1   
    44    25    26 1   
    45    26    43 1   
    46    26    44 1   
    47    26    45 1   
@<TRIPOS>SUBSTRUCTURE
     1 713         1 TEMP              0 ****  ****    0 ROOT
