@<TRIPOS>MOLECULE
713
   45    47     1     0     0
SMALL
abcg2


@<TRIPOS>ATOM
      1 CL1          3.5330    -1.8210     1.0690 cl         1 713      -0.176000
      2 C17          4.3630    -0.4800     0.3540 ca         1 713       0.156000
      3 C19          5.3380     0.1560     1.1050 ca         1 713      -0.153000
      4 C20          6.0100     1.2180     0.5290 ca         1 713       0.188000
      5 F21          6.9550     1.8370     1.2460 f          1 713      -0.170000
      6 C22          5.7400     1.6530    -0.7520 ca         1 713      -0.155000
      7 C23          4.7560     0.9930    -1.4720 ca         1 713      -0.069000
      8 C16          4.0490    -0.0830    -0.9440 ca         1 713      -0.125300
      9 C15          2.9840    -0.7640    -1.7590 c3         1 713       0.151300
     10 N14          1.6730    -0.5370    -1.1950 ns         1 713      -0.504900
     11 C13          0.7600    -1.5050    -1.0030 c          1 713       0.618700
     12 O24          0.9130    -2.6600    -1.3730 o          1 713      -0.593100
     13 C12         -0.4870    -1.0780    -0.2990 ca         1 713      -0.142600
     14 C25         -1.6840    -1.7200    -0.6120 ca         1 713      -0.075000
     15 C26         -2.8580    -1.3640     0.0260 ca         1 713      -0.101000
     16 C11         -0.4830    -0.0970     0.6870 ca         1 713      -0.075000
     17 C10         -1.6610     0.2460     1.3370 ca         1 713      -0.101000
     18 C9          -2.8580    -0.3760     1.0100 ca         1 713      -0.097300
     19 C8          -4.1400     0.0040     1.7070 c3         1 713       0.129900
     20 N4          -5.1400     0.4970     0.7880 na         1 713       0.124800
     21 N3          -6.0960    -0.3190     0.3340 nc         1 713      -0.529800
     22 C2          -6.7880     0.3910    -0.5390 cd         1 713       0.261300
     23 C1          -7.9690    -0.1820    -1.2450 c3         1 713      -0.118400
     24 C7          -6.2550     1.6900    -0.6500 cd         1 713      -0.230000
     25 C5          -5.1860     1.7210     0.2170 cc         1 713      -0.130300
     26 C6          -4.2180     2.8040     0.5320 c3         1 713      -0.029800
     27 H1           5.5720    -0.1660     2.1110 ha         1 713       0.149000
     28 H2           6.2800     2.4860    -1.1790 ha         1 713       0.138000
     29 H3           4.5300     1.3230    -2.4780 ha         1 713       0.122000
     30 H4           3.0270    -0.3930    -2.7850 h1         1 713       0.069200
     31 H5           3.1570    -1.8390    -1.8040 h1         1 713       0.069200
     32 H6           1.4260     0.4160    -0.9830 hn         1 713       0.316500
     33 H7          -1.6990    -2.4960    -1.3660 ha         1 713       0.126500
     34 H8          -3.7840    -1.8610    -0.2400 ha         1 713       0.124500
     35 H9           0.4360     0.3960     0.9760 ha         1 713       0.126500
     36 H10         -1.6410     1.0080     2.1060 ha         1 713       0.124500
     37 H11         -4.5710    -0.8580     2.2140 h1         1 713       0.074200
     38 H12         -3.9480     0.7610     2.4680 h1         1 713       0.074200
     39 H13         -7.9000    -0.0240    -2.3210 hc         1 713       0.046367
     40 H14         -8.0490    -1.2530    -1.0640 hc         1 713       0.046367
     41 H15         -8.8970     0.2840    -0.9100 hc         1 713       0.046367
     42 H16         -6.6040     2.4970    -1.2750 ha         1 713       0.142000
     43 H17         -4.1560     2.9960     1.6040 hc         1 713       0.049700
     44 H18         -3.2120     2.5600     0.1860 hc         1 713       0.049700
     45 H19         -4.5240     3.7280     0.0450 hc         1 713       0.049700
@<TRIPOS>BOND
     1     1     2 1   
     2     2     3 ar  
     3     2     8 ar  
     4     3     4 ar  
     5     3    27 1   
     6     4     5 1   
     7     4     6 ar  
     8     6     7 ar  
     9     6    28 1   
    10     7     8 ar  
    11     7    29 1   
    12     8     9 1   
    13     9    10 1   
    14     9    30 1   
    15     9    31 1   
    16    10    11 1   
    17    10    32 1   
    18    11    12 2   
    19    11    13 1   
    20    13    14 ar  
    21    13    16 ar  
    22    14    15 ar  
    23    14    33 1   
    24    15    18 ar  
    25    15    34 1   
    26    16    17 ar  
    27    16    35 1   
    28    17    18 ar  
    29    17    36 1   
    30    18    19 1   
    31    19    20 1   
    32    19    37 1   
    33    19    38 1   
    34    20    21 1   
    35    20    25 1   
    36    21    22 2   
    37    22    23 1   
    38    22    24 1   
    39    23    39 1   
    40    23    40 1   
    41    23    41 1   
    42    24    25 2   
    43    24    42 1   
    44    25    26 1   
    45    26    43 1   
    46    26    44 1   
    47    26    45 1   
@<TRIPOS>SUBSTRUCTURE
     1 713         1 TEMP              0 ****  ****    0 ROOT
