@<TRIPOS>MOLECULE
714
   49    49     1     0     0
SMALL
abcg2


@<TRIPOS>ATOM
      1 O1           6.4650    -0.4280    -0.6840 o          1 714      -0.902667
      2 P1           5.5850    -0.1110     0.5310 p5         1 714       1.299500
      3 O3           5.5110    -1.2400     1.5650 o          1 714      -0.902667
      4 O2           5.9730     1.2400     1.1780 o          1 714      -0.902667
      5 C1           3.8610     0.1800    -0.1180 c3         1 714      -0.593700
      6 P2           2.9090    -1.2970    -0.7370 p5         1 714       1.299500
      7 O4           1.7880    -0.6880    -1.6070 o          1 714      -0.902667
      8 O5           3.8680    -2.1680    -1.5580 o          1 714      -0.902667
      9 O6           2.3450    -1.9990     0.5110 o          1 714      -0.902667
     10 C2           3.0610     0.9160     0.9430 c3         1 714       0.075600
     11 N1           1.7930     1.4720     0.4230 na         1 714       0.110300
     12 C7           0.6930     0.7300     0.4420 ca         1 714      -0.053000
     13 C6          -0.4990     1.2130    -0.0920 ca         1 714       0.117100
     14 C5          -0.4980     2.4620    -0.6920 ca         1 714      -0.223000
     15 C4           0.6830     3.1930    -0.7230 ca         1 714      -0.163000
     16 C3           1.8190     2.6820    -0.1550 ca         1 714      -0.065300
     17 O7          -1.5540     0.4030     0.0280 os         1 714      -0.315100
     18 C8          -2.8220     0.8800    -0.3930 c3         1 714       0.173600
     19 C9          -3.8830    -0.0960     0.0650 c3         1 714      -0.083400
     20 C10         -5.2690     0.3570    -0.3780 c3         1 714      -0.072400
     21 C11         -6.3910    -0.5020     0.1890 c3         1 714      -0.074400
     22 C12         -7.7720    -0.0480    -0.2650 c3         1 714      -0.074400
     23 C13         -8.9090    -0.8460     0.3590 c3         1 714      -0.076400
     24 C14        -10.2890    -0.3900    -0.1010 c3         1 714      -0.075400
     25 C15        -11.4200    -1.1750     0.5470 c3         1 714      -0.086100
     26 H1           3.9820     0.8670    -0.9680 hc         1 714       0.035700
     27 H2           2.8120     0.2460     1.7640 h1         1 714       0.068700
     28 H2A          3.6200     1.7580     1.3450 h1         1 714       0.068700
     29 H7           0.7720    -0.2490     0.8920 h4         1 714       0.232000
     30 H5          -1.3830     2.8920    -1.1350 ha         1 714       0.077000
     31 H4           0.7070     4.1680    -1.1790 ha         1 714       0.085000
     32 H3           2.7490     3.2250    -0.1310 h4         1 714       0.155000
     33 H8          -3.0180     1.8660     0.0450 h1         1 714       0.018200
     34 H8A         -2.8400     0.9900    -1.4830 h1         1 714       0.018200
     35 H9          -3.6670    -1.0910    -0.3320 hc         1 714       0.059200
     36 H9A         -3.8450    -0.1670     1.1550 hc         1 714       0.059200
     37 H10         -5.4270     1.3960    -0.0690 hc         1 714       0.030700
     38 H10A        -5.3250     0.3570    -1.4720 hc         1 714       0.030700
     39 H11         -6.2380    -1.5480    -0.0960 hc         1 714       0.039700
     40 H11A        -6.3420    -0.4780     1.2830 hc         1 714       0.039700
     41 H12         -7.9010     1.0130    -0.0220 hc         1 714       0.032200
     42 H12A        -7.8370    -0.1150    -1.3570 hc         1 714       0.032200
     43 H13         -8.7820    -1.9090     0.1260 hc         1 714       0.037200
     44 H13A        -8.8480    -0.7690     1.4500 hc         1 714       0.037200
     45 H14        -10.4080     0.6750     0.1190 hc         1 714       0.033700
     46 H14A       -10.3560    -0.4810    -1.1900 hc         1 714       0.033700
     47 H15        -12.3960    -0.8350     0.2000 hc         1 714       0.025367
     48 H15A       -11.3420    -2.2400     0.3230 hc         1 714       0.025367
     49 H15B       -11.4010    -1.0690     1.6330 hc         1 714       0.025367
@<TRIPOS>BOND
     1     1     2 1   
     2     2     3 1   
     3     2     4 1   
     4     2     5 1   
     5     5     6 1   
     6     5    10 1   
     7     5    26 1   
     8     6     7 1   
     9     6     8 1   
    10     6     9 1   
    11    10    11 1   
    12    10    27 1   
    13    10    28 1   
    14    11    12 1   
    15    11    16 2   
    16    12    13 ar  
    17    12    29 1   
    18    13    14 ar  
    19    13    17 1   
    20    14    15 ar  
    21    14    30 1   
    22    15    16 ar  
    23    15    31 1   
    24    16    32 1   
    25    17    18 1   
    26    18    19 1   
    27    18    33 1   
    28    18    34 1   
    29    19    20 1   
    30    19    35 1   
    31    19    36 1   
    32    20    21 1   
    33    20    37 1   
    34    20    38 1   
    35    21    22 1   
    36    21    39 1   
    37    21    40 1   
    38    22    23 1   
    39    22    41 1   
    40    22    42 1   
    41    23    24 1   
    42    23    43 1   
    43    23    44 1   
    44    24    25 1   
    45    24    45 1   
    46    24    46 1   
    47    25    47 1   
    48    25    48 1   
    49    25    49 1   
@<TRIPOS>SUBSTRUCTURE
     1 714         1 TEMP              0 ****  ****    0 ROOT
