@<TRIPOS>MOLECULE
714
   49    49     1     0     0
SMALL
No Charge or Current Charge


@<TRIPOS>ATOM
      1 O1           6.7710    -0.5410    -0.1630 o          1 714      -0.902667
      2 P1           5.6580    -0.2630     0.7910 p5         1 714       1.299500
      3 O3           5.4570    -1.3870     1.7470 o          1 714      -0.902667
      4 O2           6.0240     0.9650     1.5540 o          1 714      -0.902667
      5 C1           4.1610     0.1430    -0.1120 c3         1 714      -0.593700
      6 P2           3.5030    -1.3900    -0.7830 p5         1 714       1.299500
      7 O4           2.6030    -0.9810    -1.8990 o          1 714      -0.902667
      8 O5           4.5430    -2.3130    -1.3180 o          1 714      -0.902667
      9 O6           2.6670    -2.0630     0.2530 o          1 714      -0.902667
     10 C2           3.1490     0.8880     0.7960 c3         1 714       0.075600
     11 N1           1.9310     1.3750     0.1140 na         1 714       0.110300
     12 C7           0.7020     0.7430     0.3170 ca         1 714      -0.053000
     13 C6          -0.5010     1.3290    -0.1140 ca         1 714       0.117100
     14 C5          -0.4640     2.5720    -0.7870 ca         1 714      -0.223000
     15 C4           0.7720     3.1940    -1.0280 ca         1 714      -0.163000
     16 C3           1.9600     2.5840    -0.5860 ca         1 714      -0.065300
     17 O7          -1.6780     0.6570     0.1390 os         1 714      -0.315100
     18 C8          -2.9560     1.1780    -0.2610 c3         1 714       0.173600
     19 C9          -4.0330     0.1720     0.1860 c3         1 714      -0.083400
     20 C10         -5.4650     0.6180    -0.1850 c3         1 714      -0.072400
     21 C11         -6.5480    -0.3880     0.2630 c3         1 714      -0.074400
     22 C12         -7.9780     0.0600    -0.1090 c3         1 714      -0.074400
     23 C13         -9.0620    -0.9460     0.3390 c3         1 714      -0.076400
     24 C14        -10.4920    -0.4980    -0.0320 c3         1 714      -0.075400
     25 C15        -11.5740    -1.5010     0.4140 c3         1 714      -0.086100
     26 H1           4.4530     0.7830    -0.9480 hc         1 714       0.035700
     27 H2           2.8540     0.2380     1.6300 h1         1 714       0.068700
     28 H2A          3.6340     1.7650     1.2430 h1         1 714       0.068700
     29 H7           0.7060    -0.2250     0.8160 h4         1 714       0.232000
     30 H5          -1.3720     3.0560    -1.1350 ha         1 714       0.077000
     31 H4           0.8130     4.1430    -1.5580 ha         1 714       0.085000
     32 H3           2.9350     3.0390    -0.7650 h4         1 714       0.155000
     33 H8          -3.1430     2.1500     0.2130 h1         1 714       0.018200
     34 H8A         -3.0000     1.3010    -1.3510 h1         1 714       0.018200
     35 H9          -3.8260    -0.8020    -0.2750 hc         1 714       0.059200
     36 H9A         -3.9660     0.0370     1.2730 hc         1 714       0.059200
     37 H10         -5.6670     1.5940     0.2740 hc         1 714       0.030700
     38 H10A        -5.5280     0.7560    -1.2720 hc         1 714       0.030700
     39 H11         -6.3450    -1.3630    -0.1970 hc         1 714       0.039700
     40 H11A        -6.4840    -0.5260     1.3490 hc         1 714       0.039700
     41 H12         -8.1810     1.0360     0.3510 hc         1 714       0.032200
     42 H12A        -8.0420     0.1980    -1.1950 hc         1 714       0.032200
     43 H13         -8.8590    -1.9210    -0.1210 hc         1 714       0.037200
     44 H13A        -8.9980    -1.0840     1.4260 hc         1 714       0.037200
     45 H14        -10.6990     0.4760     0.4270 hc         1 714       0.033700
     46 H14A       -10.5600    -0.3610    -1.1180 hc         1 714       0.033700
     47 H15        -12.5690    -1.1410     0.1300 hc         1 714       0.025367
     48 H15A       -11.4140    -2.4780    -0.0580 hc         1 714       0.025367
     49 H15B       -11.5550    -1.6340     1.5020 hc         1 714       0.025367
@<TRIPOS>BOND
     1     1     2 1   
     2     2     3 1   
     3     2     4 1   
     4     2     5 1   
     5     5     6 1   
     6     5    10 1   
     7     5    26 1   
     8     6     7 1   
     9     6     8 1   
    10     6     9 1   
    11    10    11 1   
    12    10    27 1   
    13    10    28 1   
    14    11    12 1   
    15    11    16 2   
    16    12    13 ar  
    17    12    29 1   
    18    13    14 ar  
    19    13    17 1   
    20    14    15 ar  
    21    14    30 1   
    22    15    16 ar  
    23    15    31 1   
    24    16    32 1   
    25    17    18 1   
    26    18    19 1   
    27    18    33 1   
    28    18    34 1   
    29    19    20 1   
    30    19    35 1   
    31    19    36 1   
    32    20    21 1   
    33    20    37 1   
    34    20    38 1   
    35    21    22 1   
    36    21    39 1   
    37    21    40 1   
    38    22    23 1   
    39    22    41 1   
    40    22    42 1   
    41    23    24 1   
    42    23    43 1   
    43    23    44 1   
    44    24    25 1   
    45    24    45 1   
    46    24    46 1   
    47    25    47 1   
    48    25    48 1   
    49    25    49 1   
@<TRIPOS>SUBSTRUCTURE
     1 714         1 TEMP              0 ****  ****    0 ROOT
