@<TRIPOS>MOLECULE
715
   43    45     1     0     0
SMALL
No Charge or Current Charge


@<TRIPOS>ATOM
      1 C1           1.1090    -0.3880     6.7940 ca         1 715      -0.174000
      2 C2           1.1710    -0.7370     5.4350 ca         1 715       0.207000
      3 C3          -0.0030    -0.7770     4.6470 ca         1 715      -0.090300
      4 C4          -1.2420    -0.4620     5.2450 ca         1 715      -0.105000
      5 C5          -1.3030    -0.1110     6.6050 ca         1 715       0.116000
      6 C6          -0.1270    -0.0740     7.3780 ca         1 715       0.162000
      7 F9          -2.4980     0.1890     7.1630 f          1 715      -0.159000
      8 F10          2.3750    -1.0390     4.8970 f          1 715      -0.170000
      9 C11          0.0380    -1.1550     3.1630 c3         1 715      -0.023100
     10 C12         -0.1540     0.0560     2.2130 c3         1 715       0.181500
     11 C15         -0.1640    -0.3700     0.7300 c3         1 715      -0.203400
     12 C16         -0.6830     0.6730    -0.2770 c          1 715       0.615100
     13 N19         -0.5400     0.4040    -1.6580 n          1 715      -0.428800
     14 N20          0.8940     1.0690     2.4320 n8         1 715      -0.992200
     15 O22         -1.1760     1.7280     0.1010 o          1 715      -0.588100
     16 C25         -1.0090     1.4150    -2.6690 c6         1 715       0.077000
     17 C26         -0.3850     1.2780    -4.0840 c6         1 715       0.052600
     18 N27         -0.4360    -0.1250    -4.5190 na         1 715      -0.332000
     19 C28         -0.3990    -1.1800    -3.6580 cc         1 715       0.371800
     20 C29         -0.3060    -1.0030    -2.1590 c6         1 715       0.076700
     21 C39         -0.5090    -0.6480    -5.7930 cc         1 715       0.262800
     22 N40         -0.5240    -1.9710    -5.6910 nd         1 715      -0.289000
     23 N41         -0.4540    -2.3020    -4.3560 nd         1 715      -0.346000
     24 C42         -0.5660     0.1520    -7.0860 c3         1 715       0.307700
     25 F43         -0.5150    -0.6400    -8.1830 f          1 715      -0.096333
     26 F44         -1.7060     0.8750    -7.1730 f          1 715      -0.096333
     27 F45          0.4670     1.0220    -7.1810 f          1 715      -0.096333
     28 F46         -0.1800     0.2630     8.6870 f          1 715      -0.155000
     29 H1           2.0160    -0.3610     7.3900 ha         1 715       0.153000
     30 H4          -2.1580    -0.4880     4.6600 ha         1 715       0.134000
     31 H111        -0.7550    -1.8850     2.9620 hc         1 715       0.053700
     32 H112         0.9760    -1.6650     2.9110 hc         1 715       0.053700
     33 H12         -1.1290     0.5090     2.4530 h1         1 715       0.079700
     34 H151         0.8150    -0.7340     0.3970 hc         1 715       0.068700
     35 H152        -0.7790    -1.2660     0.5920 hc         1 715       0.068700
     36 H201         1.7930     0.7020     2.1000 hn         1 715       0.407000
     37 H202         0.7110     1.8680     1.8130 hn         1 715       0.407000
     38 H251        -2.1020     1.3260    -2.7600 h1         1 715       0.082700
     39 H252        -0.8050     2.4310    -2.3030 h1         1 715       0.082700
     40 H261        -0.9220     1.9230    -4.7930 h1         1 715       0.081700
     41 H262         0.6650     1.6030    -4.0540 h1         1 715       0.081700
     42 H291         0.6900    -1.3340    -1.8350 h1         1 715       0.082700
     43 H292        -1.0360    -1.6750    -1.6860 h1         1 715       0.082700
@<TRIPOS>BOND
     1     1     2 ar  
     2     1     6 ar  
     3     1    29 1   
     4     2     3 ar  
     5     2     8 1   
     6     3     4 ar  
     7     3     9 1   
     8     4     5 ar  
     9     4    30 1   
    10     5     6 ar  
    11     5     7 1   
    12     6    28 1   
    13     9    10 1   
    14     9    31 1   
    15     9    32 1   
    16    10    11 1   
    17    10    14 1   
    18    10    33 1   
    19    11    12 1   
    20    11    34 1   
    21    11    35 1   
    22    12    13 1   
    23    12    15 2   
    24    13    16 1   
    25    13    20 1   
    26    14    36 1   
    27    14    37 1   
    28    16    17 1   
    29    16    38 1   
    30    16    39 1   
    31    17    18 1   
    32    17    40 1   
    33    17    41 1   
    34    18    19 1   
    35    18    21 1   
    36    19    20 1   
    37    19    23 2   
    38    20    42 1   
    39    20    43 1   
    40    21    22 2   
    41    21    24 1   
    42    22    23 1   
    43    24    25 1   
    44    24    26 1   
    45    24    27 1   
@<TRIPOS>SUBSTRUCTURE
     1 715         1 TEMP              0 ****  ****    0 ROOT
