@<TRIPOS>MOLECULE
715
   43    45     1     0     0
SMALL
bcc


@<TRIPOS>ATOM
      1 C1           1.6440    -0.1610     6.1440 ca         1 715      -0.192000
      2 C2           1.3950    -0.5750     4.8480 ca         1 715       0.171900
      3 C3           0.1190    -0.7360     4.3340 ca         1 715      -0.090300
      4 C4          -0.9440    -0.4540     5.1890 ca         1 715      -0.123000
      5 C5          -0.7240    -0.0340     6.4840 ca         1 715       0.080900
      6 C6           0.5660     0.1110     6.9600 ca         1 715       0.126900
      7 F9          -1.7550     0.2310     7.2950 f          1 715      -0.123900
      8 F10          2.4550    -0.8450     4.0720 f          1 715      -0.134900
      9 C11         -0.1400    -1.1560     2.9180 c3         1 715      -0.023100
     10 C12         -0.3380     0.0460     1.9840 c3         1 715       0.181500
     11 C15         -0.7250    -0.4780     0.5970 c3         1 715      -0.203400
     12 C16         -1.1500     0.6070    -0.3710 c          1 715       0.682100
     13 N19         -1.4720     0.2150    -1.6320 n          1 715      -0.495800
     14 N20          0.8400     0.8910     2.0190 n8         1 715      -0.881800
     15 O22         -1.2180     1.7800    -0.0380 o          1 715      -0.588100
     16 C25         -1.8640     1.1720    -2.6460 c6         1 715       0.077000
     17 C26         -0.7900     1.2680    -3.7160 c6         1 715       0.023300
     18 N27         -0.4120    -0.0850    -4.1100 na         1 715      -0.302700
     19 C28         -0.6670    -1.1960    -3.3870 cc         1 715       0.371800
     20 C29         -1.4490    -1.1470    -2.1180 c6         1 715       0.076700
     21 C39          0.2960    -0.5390    -5.1700 cc         1 715       0.262800
     22 N40          0.4470    -1.8270    -5.1020 nd         1 715      -0.289000
     23 N41         -0.1610    -2.2460    -3.9730 nd         1 715      -0.346000
     24 C42          0.8200     0.3200    -6.2670 c3         1 715       0.671600
     25 F43          1.5530    -0.3930    -7.1110 f          1 715      -0.217633
     26 F44         -0.1720     0.8930    -6.9570 f          1 715      -0.217633
     27 F45          1.5800     1.3100    -5.7850 f          1 715      -0.217633
     28 F46          0.7630     0.5130     8.2180 f          1 715      -0.119900
     29 H1           2.6560    -0.0530     6.5110 ha         1 715       0.171000
     30 H4          -1.9630    -0.5650     4.8380 ha         1 715       0.152000
     31 H111        -1.0380    -1.7760     2.8910 hc         1 715       0.053700
     32 H112         0.6730    -1.7800     2.5420 hc         1 715       0.053700
     33 H12         -1.1740     0.6310     2.3790 h1         1 715       0.079700
     34 H151         0.1200    -1.0340     0.1780 hc         1 715       0.068700
     35 H152        -1.5440    -1.1990     0.6930 hc         1 715       0.068700
     36 H201         1.6280     0.4020     1.6120 hn         1 715       0.351800
     37 H202         0.6840     1.7110     1.4480 hn         1 715       0.351800
     38 H251        -2.8110     0.8520    -3.0910 h1         1 715       0.082700
     39 H252        -2.0180     2.1520    -2.2050 h1         1 715       0.082700
     40 H261        -1.1720     1.8090    -4.5800 h1         1 715       0.081700
     41 H262         0.0910     1.7870    -3.3370 h1         1 715       0.081700
     42 H291        -1.0060    -1.8310    -1.4000 h1         1 715       0.082700
     43 H292        -2.4690    -1.4960    -2.3080 h1         1 715       0.082700
@<TRIPOS>BOND
     1     1     2 ar  
     2     1     6 ar  
     3     1    29 1   
     4     2     3 ar  
     5     2     8 1   
     6     3     4 ar  
     7     3     9 1   
     8     4     5 ar  
     9     4    30 1   
    10     5     6 ar  
    11     5     7 1   
    12     6    28 1   
    13     9    10 1   
    14     9    31 1   
    15     9    32 1   
    16    10    11 1   
    17    10    14 1   
    18    10    33 1   
    19    11    12 1   
    20    11    34 1   
    21    11    35 1   
    22    12    13 1   
    23    12    15 2   
    24    13    16 1   
    25    13    20 1   
    26    14    36 1   
    27    14    37 1   
    28    16    17 1   
    29    16    38 1   
    30    16    39 1   
    31    17    18 1   
    32    17    40 1   
    33    17    41 1   
    34    18    19 1   
    35    18    21 1   
    36    19    20 1   
    37    19    23 2   
    38    20    42 1   
    39    20    43 1   
    40    21    22 2   
    41    21    24 1   
    42    22    23 1   
    43    24    25 1   
    44    24    26 1   
    45    24    27 1   
@<TRIPOS>SUBSTRUCTURE
     1 715         1 TEMP              0 ****  ****    0 ROOT
