@<TRIPOS>MOLECULE
717
   16    17     1     0     0
SMALL
No Charge or Current Charge


@<TRIPOS>ATOM
      1 C1           1.4980     0.2020     0.0360 cc         1 717       0.254300
      2 N2           0.5680     1.1580    -0.3460 nc         1 717      -0.646000
      3 C3          -0.5660     0.4860    -0.2870 cd         1 717       0.435900
      4 N4          -0.4270    -0.7860     0.0980 na         1 717      -0.031500
      5 C5           0.9090    -1.0220     0.3220 cd         1 717      -0.181000
      6 C6          -1.5310    -1.6000     0.2080 cc         1 717      -0.112000
      7 C7          -2.6230    -0.8040    -0.1470 cd         1 717      -0.246000
      8 S8          -2.2280     0.8970    -0.5930 ss         1 717       0.021600
      9 C9           2.9770     0.5330     0.1140 c3         1 717       0.140300
     10 O10          3.7490    -0.1820    -0.8700 oh         1 717      -0.666000
     11 H5           1.3270    -1.9680     0.6420 h4         1 717       0.176000
     12 H6          -1.4700    -2.6380     0.5160 h4         1 717       0.167000
     13 H7          -3.6620    -1.1150    -0.1740 h4         1 717       0.165000
     14 H9           3.1060     1.6160    -0.0190 h1         1 717       0.037700
     15 H9A          3.3310     0.2870     1.1240 h1         1 717       0.037700
     16 HO10         4.6850     0.1020    -0.7630 ho         1 717       0.448000
@<TRIPOS>BOND
     1     1     2 1   
     2     1     5 2   
     3     1     9 1   
     4     2     3 2   
     5     3     4 1   
     6     3     8 1   
     7     4     5 1   
     8     4     6 1   
     9     5    11 1   
    10     6     7 2   
    11     6    12 1   
    12     7     8 1   
    13     7    13 1   
    14     9    10 1   
    15     9    14 1   
    16     9    15 1   
    17    10    16 1   
@<TRIPOS>SUBSTRUCTURE
     1 717         1 TEMP              0 ****  ****    0 ROOT
