@<TRIPOS>MOLECULE
718
   22    23     1     0     0
SMALL
abcg2


@<TRIPOS>ATOM
      1 C4          -0.3460     0.5420    -0.0810 ca         1 718      -0.219600
      2 C5           0.5830     1.5870    -0.0030 ca         1 718      -0.015000
      3 C6           1.9360     1.3450     0.0010 ca         1 718      -0.166000
      4 C7          -0.8460    -1.9290    -0.2380 c6         1 718      -0.042100
      5 C8          -2.1910    -1.5850     0.3790 c6         1 718      -0.066400
      6 C10         -1.7880     0.8560    -0.1030 c          1 718       0.591700
      7 C9          -2.7410    -0.3060    -0.2320 c6         1 718      -0.178400
      8 C3           0.1170    -0.7790    -0.1480 ca         1 718       0.013700
      9 C2           1.4840    -1.0220    -0.1430 ca         1 718      -0.230000
     10 C1           2.3950     0.0270    -0.0730 ca         1 718       0.172100
     11 O1           3.7220    -0.1670    -0.0660 oh         1 718      -0.527100
     12 O11         -2.1920     2.0020    -0.0470 o          1 718      -0.534100
     13 H1           0.2280     2.6070     0.0530 ha         1 718       0.136000
     14 H2           2.6460     2.1590     0.0600 ha         1 718       0.134000
     15 H3          -0.4170    -2.8110     0.2400 hc         1 718       0.054700
     16 H4          -0.9830    -2.1920    -1.2930 hc         1 718       0.054700
     17 H5          -2.8960    -2.4040     0.2290 hc         1 718       0.049700
     18 H6          -2.0790    -1.4610     1.4590 hc         1 718       0.049700
     19 H7          -2.9160    -0.4600    -1.3040 hc         1 718       0.069700
     20 H8          -3.7020    -0.0270     0.2020 hc         1 718       0.069700
     21 H9           1.8400    -2.0460    -0.1920 ha         1 718       0.114000
     22 H10          3.9290    -1.1050    -0.1190 ho         1 718       0.468000
@<TRIPOS>BOND
     1     1     2 ar  
     2     1     6 1   
     3     1     8 ar  
     4     2     3 ar  
     5     2    13 1   
     6     3    10 ar  
     7     3    14 1   
     8     4     5 1   
     9     4     8 1   
    10     4    15 1   
    11     4    16 1   
    12     5     7 1   
    13     5    17 1   
    14     5    18 1   
    15     6     7 1   
    16     6    12 2   
    17     7    19 1   
    18     7    20 1   
    19     8     9 ar  
    20     9    10 ar  
    21     9    21 1   
    22    10    11 1   
    23    11    22 1   
@<TRIPOS>SUBSTRUCTURE
     1 718         1 TEMP              0 ****  ****    0 ROOT
