@<TRIPOS>MOLECULE
718
   22    23     1     0     0
SMALL
No Charge or Current Charge


@<TRIPOS>ATOM
      1 C4          -0.3380     0.5770    -0.0560 ca         1 718      -0.219600
      2 C5           0.5930     1.6370    -0.0070 ca         1 718      -0.015000
      3 C6           1.9720     1.3710    -0.0350 ca         1 718      -0.166000
      4 C7          -0.8400    -1.9440    -0.1690 c6         1 718      -0.042100
      5 C8          -2.2530    -1.6030     0.3550 c6         1 718      -0.066400
      6 C10         -1.8170     0.8740    -0.0230 c          1 718       0.591700
      7 C9          -2.7680    -0.2990    -0.2880 c6         1 718      -0.178400
      8 C3           0.1300    -0.7580    -0.1210 ca         1 718       0.013700
      9 C2           1.5150    -1.0090    -0.1540 ca         1 718      -0.230000
     10 C1           2.4300     0.0510    -0.1100 ca         1 718       0.172100
     11 O1           3.7680    -0.2000    -0.1400 oh         1 718      -0.527100
     12 O11         -2.2530     1.9870     0.2460 o          1 718      -0.534100
     13 H1           0.2530     2.6700     0.0490 ha         1 718       0.136000
     14 H2           2.6840     2.1910    -0.0000 ha         1 718       0.134000
     15 H3          -0.4340    -2.7850     0.4100 hc         1 718       0.054700
     16 H4          -0.9130    -2.2980    -1.2070 hc         1 718       0.054700
     17 H5          -2.9420    -2.4320     0.1430 hc         1 718       0.049700
     18 H6          -2.2240    -1.4890     1.4480 hc         1 718       0.049700
     19 H7          -2.7590    -0.4640    -1.3730 hc         1 718       0.069700
     20 H8          -3.7900    -0.0400     0.0160 hc         1 718       0.069700
     21 H9           1.8720    -2.0350    -0.2110 ha         1 718       0.114000
     22 H10          3.8960    -1.1710    -0.1920 ho         1 718       0.468000
@<TRIPOS>BOND
     1     1     2 ar  
     2     1     6 1   
     3     1     8 ar  
     4     2     3 ar  
     5     2    13 1   
     6     3    10 ar  
     7     3    14 1   
     8     4     5 1   
     9     4     8 1   
    10     4    15 1   
    11     4    16 1   
    12     5     7 1   
    13     5    17 1   
    14     5    18 1   
    15     6     7 1   
    16     6    12 2   
    17     7    19 1   
    18     7    20 1   
    19     8     9 ar  
    20     9    10 ar  
    21     9    21 1   
    22    10    11 1   
    23    11    22 1   
@<TRIPOS>SUBSTRUCTURE
     1 718         1 TEMP              0 ****  ****    0 ROOT
