@<TRIPOS>MOLECULE
719
   68    72     1     0     0
SMALL
abcg2


@<TRIPOS>ATOM
      1 N1           2.4950    -1.9380    -0.4090 na         1 719      -0.308300
      2 C2           2.7730    -3.3690    -0.3800 c5         1 719       0.320300
      3 C3           3.4090    -0.9700    -0.7080 ca         1 719       0.126500
      4 C4           2.7280     0.2290    -0.5830 ca         1 719      -0.097600
      5 N5           1.4270     0.0090    -0.2150 nc         1 719      -0.567100
      6 C6           3.3070    -3.8110     0.9810 c5         1 719       0.121300
      7 C7          -3.5870    -0.2630    -0.8680 ca         1 719      -0.230600
      8 C8           1.3290    -1.2850    -0.1190 cd         1 719       0.403700
      9 O9           1.5920    -4.0810    -0.5980 os         1 719      -0.435000
     10 C10          2.0040    -4.1180     1.7210 c5         1 719       0.097300
     11 C11         -4.4680     0.3380    -1.7740 ca         1 719       0.133100
     12 C12         -2.8030     0.5400    -0.0350 ca         1 719      -0.069000
     13 C13          1.1460    -4.7190     0.5940 c5         1 719       0.178500
     14 C14         -3.5020    -1.7450    -0.8690 c          1 719       0.631700
     15 N15          4.6870    -1.1260    -1.0520 nb         1 719      -0.223000
     16 C16         -2.9050     1.9210    -0.0630 cp         1 719      -0.043000
     17 C17         -4.5940     1.7370    -1.7870 ca         1 719       0.098100
     18 C18         -3.8190     2.5070    -0.9450 ca         1 719      -0.089000
     19 C19          3.4690     1.3980    -0.8510 ca         1 719       0.446900
     20 N20          4.7520     1.2570    -1.1980 nb         1 719      -0.301000
     21 C21          5.2740     0.0350    -1.2800 ca         1 719       0.184900
     22 C22         -2.0620     2.7620     0.8090 cp         1 719      -0.051000
     23 C23         -0.3170    -4.5300     0.8100 c2         1 719      -0.233200
     24 O24         -3.9700    -2.3910    -1.8180 o          1 719      -0.647100
     25 O25          4.0570    -4.9750     0.7700 oh         1 719      -0.701000
     26 N26         -2.9240    -2.3400     0.1770 ns         1 719      -0.483900
     27 C27         -1.1690    -3.9870    -0.0510 c2         1 719      -0.223200
     28 C28         -2.5630     3.9330     1.3770 ca         1 719      -0.082000
     29 C29         -0.7400     2.4050     1.0850 ca         1 719      -0.082000
     30 O30          2.1850    -5.0180     2.7750 oh         1 719      -0.709000
     31 O31         -5.2220    -0.3420    -2.6440 oh         1 719      -0.573100
     32 O32         -5.4460     2.3450    -2.6350 oh         1 719      -0.534100
     33 C33         -0.4760     4.3400     2.4480 ca         1 719       0.171000
     34 C34         -1.7760     4.7300     2.1960 ca         1 719      -0.154000
     35 C35          0.0570     3.1870     1.9060 ca         1 719      -0.154000
     36 F36          0.2910     5.1040     3.2430 f          1 719      -0.177000
     37 C37         -2.6200    -3.7590     0.2420 c3         1 719       0.128200
     38 N38          2.9300     2.6170    -0.7830 nu         1 719      -0.904100
     39 C39          3.6760     3.8390    -0.9850 c3         1 719       0.226800
     40 CA           2.7320     5.0130    -1.1110 c3         1 719       0.140600
     41 OB           2.0020     5.1360     0.0910 oh         1 719      -0.666000
     42 H2           3.4930    -3.5640    -1.1780 h2         1 719       0.134700
     43 H6           3.8940    -3.0230     1.4670 h1         1 719       0.076700
     44 H8           0.4260    -1.8140     0.1450 h5         1 719       0.067800
     45 H10          1.5590    -3.1790     2.0700 h1         1 719       0.054700
     46 H12         -2.0990     0.0900     0.6510 ha         1 719       0.111000
     47 H13          1.3650    -5.7930     0.5310 h1         1 719       0.094700
     48 H18         -3.9110     3.5850    -1.0020 ha         1 719       0.133000
     49 H21          6.3190    -0.0060    -1.5690 h5         1 719       0.047100
     50 H23         -0.6740    -4.8840     1.7740 ha         1 719       0.176000
     51 HO25         4.1510    -5.4280     1.6170 ho         1 719       0.529000
     52 HN26        -2.6160    -1.7810     0.9560 hn         1 719       0.320500
     53 H27         -0.8300    -3.6480    -1.0260 ha         1 719       0.202000
     54 H28         -3.5890     4.2280     1.1990 ha         1 719       0.131500
     55 H29         -0.3050     1.5200     0.6350 ha         1 719       0.131500
     56 HO30         1.8450    -4.6350     3.5870 ho         1 719       0.520000
     57 HO31        -4.9310    -1.2860    -2.5910 ho         1 719       0.531000
     58 HO32        -5.9030     1.6930    -3.1800 ho         1 719       0.487000
     59 H34         -2.1760     5.6330     2.6380 ha         1 719       0.134000
     60 H35          1.0820     2.9080     2.1130 ha         1 719       0.134000
     61 H37         -2.8830    -4.1260     1.2350 h1         1 719       0.070700
     62 H37A        -3.2510    -4.2790    -0.4780 h1         1 719       0.070700
     63 HN38         1.9910     2.6960    -0.4240 hn         1 719       0.520000
     64 H39          4.3820     4.0070    -0.1640 h1         1 719       0.064700
     65 H39A         4.2640     3.7670    -1.9010 h1         1 719       0.064700
     66 HA           3.3270     5.9090    -1.3220 h1         1 719       0.034200
     67 HAA          2.0700     4.8520    -1.9690 h1         1 719       0.034200
     68 HOB          1.2180     5.6650    -0.0780 ho         1 719       0.451000
@<TRIPOS>BOND
     1     1     2 1   
     2     1     3 1   
     3     1     8 1   
     4     2     6 1   
     5     2     9 1   
     6     2    42 1   
     7     3     4 ar  
     8     3    15 ar  
     9     4     5 1   
    10     4    19 ar  
    11     5     8 2   
    12     6    10 1   
    13     6    25 1   
    14     6    43 1   
    15     7    11 ar  
    16     7    12 ar  
    17     7    14 1   
    18     8    44 1   
    19     9    13 1   
    20    10    13 1   
    21    10    30 1   
    22    10    45 1   
    23    11    17 ar  
    24    11    31 1   
    25    12    16 ar  
    26    12    46 1   
    27    13    23 1   
    28    13    47 1   
    29    14    24 2   
    30    14    26 1   
    31    15    21 ar  
    32    16    18 ar  
    33    16    22 1   
    34    17    18 ar  
    35    17    32 1   
    36    18    48 1   
    37    19    20 ar  
    38    19    38 1   
    39    20    21 ar  
    40    21    49 1   
    41    22    28 ar  
    42    22    29 ar  
    43    23    27 2   
    44    23    50 1   
    45    25    51 1   
    46    26    37 1   
    47    26    52 1   
    48    27    37 1   
    49    27    53 1   
    50    28    34 ar  
    51    28    54 1   
    52    29    35 ar  
    53    29    55 1   
    54    30    56 1   
    55    31    57 1   
    56    32    58 1   
    57    33    34 ar  
    58    33    35 ar  
    59    33    36 1   
    60    34    59 1   
    61    35    60 1   
    62    37    61 1   
    63    37    62 1   
    64    38    39 1   
    65    38    63 1   
    66    39    40 1   
    67    39    64 1   
    68    39    65 1   
    69    40    41 1   
    70    40    66 1   
    71    40    67 1   
    72    41    68 1   
@<TRIPOS>SUBSTRUCTURE
     1 719         1 TEMP              0 ****  ****    0 ROOT
