@<TRIPOS>MOLECULE
719
   68    72     1     0     0
SMALL
No Charge or Current Charge


@<TRIPOS>ATOM
      1 N1           2.2850    -2.1270    -0.6630 na         1 719      -0.308300
      2 C2           2.8240    -3.4180    -0.2080 c5         1 719       0.320300
      3 C3           2.7700    -0.8580    -0.4530 ca         1 719       0.126500
      4 C4           2.0030    -0.0020    -1.2020 ca         1 719      -0.097600
      5 N5           1.0110    -0.6600    -1.9170 nc         1 719      -0.567100
      6 C6           3.2780    -3.5400     1.2860 c5         1 719       0.121300
      7 C7          -2.9630     0.2230    -0.7300 ca         1 719      -0.230600
      8 C8           1.2270    -1.9420    -1.5740 cd         1 719       0.403700
      9 O9           1.7980    -4.4290    -0.3290 os         1 719      -0.435000
     10 C10          1.8980    -3.6940     1.9830 c5         1 719       0.097300
     11 C11         -3.7320     1.2290    -1.3550 ca         1 719       0.133100
     12 C12         -1.9670     0.6210     0.2000 ca         1 719      -0.069000
     13 C13          1.0790    -4.5290     0.9270 c5         1 719       0.178500
     14 C14         -3.2120    -1.2370    -1.0420 c          1 719       0.631700
     15 N15          3.7920    -0.4140     0.3060 nb         1 719      -0.223000
     16 C16         -1.7110     1.9850     0.4970 cp         1 719      -0.043000
     17 C17         -3.4910     2.5900    -1.0780 ca         1 719       0.098100
     18 C18         -2.4900     2.9620    -0.1710 ca         1 719      -0.089000
     19 C19          2.3000     1.3780    -1.1620 ca         1 719       0.446900
     20 N20          3.3100     1.8470    -0.4050 nb         1 719      -0.301000
     21 C21          4.0090     0.9220     0.2910 ca         1 719       0.184900
     22 C22         -0.6550     2.3790     1.4930 cp         1 719      -0.051000
     23 C23         -0.3040    -3.9040     0.7390 c2         1 719      -0.233200
     24 O24         -4.1730    -1.6010    -1.7110 o          1 719      -0.647100
     25 O25          4.0750    -4.7020     1.5620 oh         1 719      -0.701000
     26 N26         -2.3100    -2.1350    -0.5330 ns         1 719      -0.483900
     27 C27         -1.0370    -4.1840    -0.3580 c2         1 719      -0.223200
     28 C28         -0.7650     3.5780     2.2470 ca         1 719      -0.082000
     29 C29          0.4880     1.5650     1.7180 ca         1 719      -0.082000
     30 O30          2.0470    -4.3590     3.2530 oh         1 719      -0.709000
     31 O31         -4.7210     0.8940    -2.2400 oh         1 719      -0.573100
     32 O32         -4.2450     3.5480    -1.6980 oh         1 719      -0.534100
     33 C33          1.3440     3.1290     3.3690 ca         1 719       0.171000
     34 C34          0.2260     3.9500     3.1730 ca         1 719      -0.154000
     35 C35          1.4770     1.9360     2.6460 ca         1 719      -0.154000
     36 F36          2.2950     3.4860     4.2590 f          1 719      -0.177000
     37 C37         -2.3850    -3.5840    -0.6860 c3         1 719       0.128200
     38 N38          1.5570     2.2870    -1.8980 nu         1 719      -0.904100
     39 C39          1.2910     3.6930    -1.5400 c3         1 719       0.226800
     40 CA           0.4700     4.4110    -2.6490 c3         1 719       0.140600
     41 OB          -0.6700     3.6250    -3.0560 oh         1 719      -0.666000
     42 H2           3.6630    -3.6420    -0.8810 h2         1 719       0.134700
     43 H6           3.7960    -2.6370     1.6330 h1         1 719       0.076700
     44 H8           0.6700    -2.7870    -1.9610 h5         1 719       0.067800
     45 H10          1.4530    -2.6980     2.1220 h1         1 719       0.054700
     46 H12         -1.3930    -0.1320     0.7290 ha         1 719       0.111000
     47 H13          1.0130    -5.5890     1.2090 h1         1 719       0.094700
     48 H18         -2.3160     4.0190     0.0050 ha         1 719       0.133000
     49 H21          4.8290     1.2900     0.9050 h5         1 719       0.047100
     50 H23         -0.7020    -3.2260     1.4960 ha         1 719       0.176000
     51 HO25         3.6550    -5.0450     2.3930 ho         1 719       0.529000
     52 HN26        -1.5180    -1.7520    -0.0390 hn         1 719       0.320500
     53 H27         -0.6620    -4.8700    -1.1210 ha         1 719       0.202000
     54 H28         -1.6330     4.2220     2.1290 ha         1 719       0.131500
     55 H29          0.6240     0.6430     1.1610 ha         1 719       0.131500
     56 HO30         1.1880    -4.2780     3.7340 ho         1 719       0.520000
     57 HO31        -4.7500    -0.1030    -2.2450 ho         1 719       0.531000
     58 HO32        -4.8710     3.0640    -2.2840 ho         1 719       0.487000
     59 H34          0.1240     4.8700     3.7430 ha         1 719       0.134000
     60 H35          2.3460     1.3030     2.8030 ha         1 719       0.134000
     61 H37         -3.1550    -3.9790    -0.0090 h1         1 719       0.070700
     62 H37A        -2.6700    -3.8290    -1.7180 h1         1 719       0.070700
     63 HN38         0.8000     1.8380    -2.4160 hn         1 719       0.520000
     64 H39          0.7300     3.7400    -0.5960 h1         1 719       0.064700
     65 H39A         2.2330     4.2390    -1.3920 h1         1 719       0.064700
     66 HA           0.1480     5.3910    -2.2720 h1         1 719       0.034200
     67 HAA          1.1270     4.5880    -3.5100 h1         1 719       0.034200
     68 HOB         -1.1710     4.1610    -3.7100 ho         1 719       0.451000
@<TRIPOS>BOND
     1     1     2 1   
     2     1     3 1   
     3     1     8 1   
     4     2     6 1   
     5     2     9 1   
     6     2    42 1   
     7     3     4 ar  
     8     3    15 ar  
     9     4     5 1   
    10     4    19 ar  
    11     5     8 2   
    12     6    10 1   
    13     6    25 1   
    14     6    43 1   
    15     7    11 ar  
    16     7    12 ar  
    17     7    14 1   
    18     8    44 1   
    19     9    13 1   
    20    10    13 1   
    21    10    30 1   
    22    10    45 1   
    23    11    17 ar  
    24    11    31 1   
    25    12    16 ar  
    26    12    46 1   
    27    13    23 1   
    28    13    47 1   
    29    14    24 2   
    30    14    26 1   
    31    15    21 ar  
    32    16    18 ar  
    33    16    22 1   
    34    17    18 ar  
    35    17    32 1   
    36    18    48 1   
    37    19    20 ar  
    38    19    38 1   
    39    20    21 ar  
    40    21    49 1   
    41    22    28 ar  
    42    22    29 ar  
    43    23    27 2   
    44    23    50 1   
    45    25    51 1   
    46    26    37 1   
    47    26    52 1   
    48    27    37 1   
    49    27    53 1   
    50    28    34 ar  
    51    28    54 1   
    52    29    35 ar  
    53    29    55 1   
    54    30    56 1   
    55    31    57 1   
    56    32    58 1   
    57    33    34 ar  
    58    33    35 ar  
    59    33    36 1   
    60    34    59 1   
    61    35    60 1   
    62    37    61 1   
    63    37    62 1   
    64    38    39 1   
    65    38    63 1   
    66    39    40 1   
    67    39    64 1   
    68    39    65 1   
    69    40    41 1   
    70    40    66 1   
    71    40    67 1   
    72    41    68 1   
@<TRIPOS>SUBSTRUCTURE
     1 719         1 TEMP              0 ****  ****    0 ROOT
