@<TRIPOS>MOLECULE
71A
   12    12     1     0     0
SMALL
No Charge or Current Charge


@<TRIPOS>ATOM
      1 C5           1.1500     1.1520    -0.0080 ca         1 71A      -0.122000
      2 C4           1.8640    -0.0590     0.0810 ca         1 71A       0.296900
      3 C6          -0.2520     1.1230    -0.1250 ca         1 71A      -0.173000
      4 C2          -0.0910    -1.2990    -0.0520 ca         1 71A       0.308900
      5 N3           1.2620    -1.2730     0.0600 nb         1 71A      -0.637000
      6 C1          -0.8890    -0.1300    -0.1470 ca         1 71A       0.087100
      7 H1           1.6860     2.0970     0.0130 ha         1 71A       0.123000
      8 H2           2.9490    -0.0570     0.1720 h4         1 71A       0.022100
      9 H3          -0.8190     2.0490    -0.1950 ha         1 71A       0.118000
     10 H4          -0.5550    -2.2860    -0.0660 h4         1 71A       0.033100
     11 H5          -2.6160     0.7050    -0.3120 ho         1 71A       0.467000
     12 O1          -2.2530    -0.2060    -0.2590 oh         1 71A      -0.525100
@<TRIPOS>BOND
     1     1     2 ar  
     2     1     3 ar  
     3     1     7 1   
     4     2     5 ar  
     5     2     8 1   
     6     3     6 ar  
     7     3     9 1   
     8     4     5 ar  
     9     4     6 ar  
    10     4    10 1   
    11     6    12 1   
    12    11    12 1   
@<TRIPOS>SUBSTRUCTURE
     1 71A         1 TEMP              0 ****  ****    0 ROOT
