@<TRIPOS>MOLECULE
71A
   12    12     1     0     0
SMALL
abcg2


@<TRIPOS>ATOM
      1 C5           1.1570     1.1430    -0.0070 ca         1 71A      -0.122000
      2 C4           1.8400    -0.0590     0.0780 ca         1 71A       0.296900
      3 C6          -0.2250     1.1270    -0.1200 ca         1 71A      -0.173000
      4 C2          -0.0960    -1.2580    -0.0520 ca         1 71A       0.308900
      5 N3           1.2220    -1.2350     0.0550 nb         1 71A      -0.637000
      6 C1          -0.8740    -0.1020    -0.1420 ca         1 71A       0.087100
      7 H1           1.6950     2.0810     0.0150 ha         1 71A       0.123000
      8 H2           2.9200    -0.0740     0.1670 h4         1 71A       0.022100
      9 H3          -0.7840     2.0530    -0.1900 ha         1 71A       0.118000
     10 H4          -0.5780    -2.2310    -0.0720 h4         1 71A       0.033100
     11 H5          -2.6350     0.6140    -0.3250 ho         1 71A       0.467000
     12 O1          -2.2060    -0.2450    -0.2450 oh         1 71A      -0.525100
@<TRIPOS>BOND
     1     1     2 ar  
     2     1     3 ar  
     3     1     7 1   
     4     2     5 ar  
     5     2     8 1   
     6     3     6 ar  
     7     3     9 1   
     8     4     5 ar  
     9     4     6 ar  
    10     4    10 1   
    11     6    12 1   
    12    11    12 1   
@<TRIPOS>SUBSTRUCTURE
     1 71A         1 TEMP              0 ****  ****    0 ROOT
