@<TRIPOS>MOLECULE
71B
   18    18     1     0     0
SMALL
abcg2


@<TRIPOS>ATOM
      1 C1           3.0150     1.1580     0.0360 c3         1 71B       0.147900
      2 O1           2.2010     0.0060     0.0140 os         1 71B      -0.325100
      3 C2           0.8620     0.1880    -0.0060 ca         1 71B       0.057100
      4 C3           0.0680    -0.9580    -0.0140 ca         1 71B       0.180000
      5 C4          -1.3060    -0.9170    -0.0350 ca         1 71B      -0.188000
      6 C5          -1.9680     0.3180    -0.0490 ca         1 71B       0.276000
      7 C6          -1.1900     1.4740    -0.0390 ca         1 71B      -0.158000
      8 C7           0.2000     1.4080    -0.0190 ca         1 71B      -0.132000
      9 F8           0.6810    -2.1520     0.0030 f          1 71B      -0.169000
     10 N9          -3.3490     0.3740    -0.1280 nv         1 71B      -1.061000
     11 H1           4.0450     0.8100     0.0560 h1         1 71B       0.039700
     12 H2           2.8720     1.7800    -0.8520 h1         1 71B       0.039700
     13 H3           2.8350     1.7720     0.9240 h1         1 71B       0.039700
     14 H4          -1.8650    -1.8450    -0.0400 ha         1 71B       0.132000
     15 H5          -1.6680     2.4450    -0.0460 ha         1 71B       0.116000
     16 H6           0.7580     2.3350    -0.0110 ha         1 71B       0.118000
     17 H7          -3.8310    -0.4300     0.2400 hn         1 71B       0.443500
     18 H8          -3.7580     1.2280     0.2180 hn         1 71B       0.443500
@<TRIPOS>BOND
     1     1     2 1   
     2     1    11 1   
     3     1    12 1   
     4     1    13 1   
     5     2     3 1   
     6     3     4 ar  
     7     3     8 ar  
     8     4     5 ar  
     9     4     9 1   
    10     5     6 ar  
    11     5    14 1   
    12     6     7 ar  
    13     6    10 1   
    14     7     8 ar  
    15     7    15 1   
    16     8    16 1   
    17    10    17 1   
    18    10    18 1   
@<TRIPOS>SUBSTRUCTURE
     1 71B         1 TEMP              0 ****  ****    0 ROOT
