@<TRIPOS>MOLECULE
71B
   18    18     1     0     0
SMALL
No Charge or Current Charge


@<TRIPOS>ATOM
      1 C1           3.0950     1.1860     0.0180 c3         1 71B       0.147900
      2 O1           2.2230     0.0410     0.0110 os         1 71B      -0.325100
      3 C2           0.8430     0.1600     0.0050 ca         1 71B       0.057100
      4 C3           0.0580    -1.0150    -0.0020 ca         1 71B       0.180000
      5 C4          -1.3440    -0.9420    -0.0090 ca         1 71B      -0.188000
      6 C5          -1.9780     0.3050    -0.0090 ca         1 71B       0.276000
      7 C6          -1.2120     1.4800    -0.0030 ca         1 71B      -0.158000
      8 C7           0.1950     1.4170     0.0040 ca         1 71B      -0.132000
      9 F8           0.6530    -2.2310    -0.0020 f          1 71B      -0.169000
     10 N9          -3.3440     0.3760    -0.0150 nv         1 71B      -1.061000
     11 H1           4.1430     0.8650     0.0230 h1         1 71B       0.039700
     12 H2           2.9330     1.8050    -0.8740 h1         1 71B       0.039700
     13 H3           2.9240     1.8010     0.9110 h1         1 71B       0.039700
     14 H4          -1.9280    -1.8570    -0.0150 ha         1 71B       0.132000
     15 H5          -1.7040     2.4500    -0.0040 ha         1 71B       0.116000
     16 H6           0.7590     2.3460     0.0080 ha         1 71B       0.118000
     17 H7          -3.9020    -0.4680     0.1020 hn         1 71B       0.443500
     18 H8          -3.8110     1.2740     0.1040 hn         1 71B       0.443500
@<TRIPOS>BOND
     1     1     2 1   
     2     1    11 1   
     3     1    12 1   
     4     1    13 1   
     5     2     3 1   
     6     3     4 ar  
     7     3     8 ar  
     8     4     5 ar  
     9     4     9 1   
    10     5     6 ar  
    11     5    14 1   
    12     6     7 ar  
    13     6    10 1   
    14     7     8 ar  
    15     7    15 1   
    16     8    16 1   
    17    10    17 1   
    18    10    18 1   
@<TRIPOS>SUBSTRUCTURE
     1 71B         1 TEMP              0 ****  ****    0 ROOT
