@<TRIPOS>MOLECULE
71C
   66    70     1     0     0
SMALL
abcg2


@<TRIPOS>ATOM
      1 C10          2.6260     0.5110    -0.2640 ca         1 71C      -0.174600
      2 C11          3.6490     0.5580     0.6800 ca         1 71C      -0.133000
      3 C19          0.3380     0.0010     1.3890 c3         1 71C       0.159300
      4 C20         -0.7650    -0.8430     0.7970 ca         1 71C      -0.057300
      5 C26         -5.3970    -1.9730     0.7100 ca         1 71C       0.140100
      6 C28         -6.6200    -4.0140     0.9800 ca         1 71C      -0.110000
      7 C31         -6.3050    -1.5380    -0.2420 ca         1 71C      -0.123500
      8 C32         -2.0820    -0.6680     1.2030 ca         1 71C      -0.141000
      9 C33         -0.3940     2.3510     1.0980 c6         1 71C       0.171000
     10 C34          0.2660     3.3390     2.0600 c6         1 71C      -0.094400
     11 C35         -0.6520     4.5230     2.3220 c6         1 71C      -0.067400
     12 C36         -0.9020     5.2750     1.0230 c6         1 71C      -0.021100
     13 O01          5.7000    -3.3990    -0.8200 o          1 71C      -0.751500
     14 C02          5.9620    -2.2120    -0.5410 c          1 71C       0.734600
     15 O03          7.0910    -1.7000    -0.4270 o          1 71C      -0.751500
     16 C04          4.7800    -1.2730    -0.3810 ca         1 71C      -0.110600
     17 C05          3.7580    -1.3080    -1.3210 ca         1 71C      -0.094000
     18 C06          2.6850    -0.4210    -1.2990 ca         1 71C      -0.169600
     19 C07          1.6240    -0.4750    -2.3850 c          1 71C       0.708600
     20 O08          1.7120    -1.3960    -3.2220 o          1 71C      -0.757000
     21 O09          0.7580     0.4170    -2.3460 o          1 71C      -0.757000
     22 C12          4.7230    -0.3250     0.6440 ca         1 71C      -0.106600
     23 C13          5.7420    -0.2760     1.7680 c          1 71C       0.743600
     24 O14          5.8970    -1.3330     2.4070 o          1 71C      -0.755000
     25 O15          6.2820     0.8260     1.9840 o          1 71C      -0.755000
     26 C16          1.5560     1.5560    -0.1160 c          1 71C       0.680700
     27 O17          1.7190     2.6690    -0.5940 o          1 71C      -0.622100
     28 N18          0.5230     1.2790     0.7170 n          1 71C      -0.410800
     29 C21         -0.4760    -1.7990    -0.1730 ca         1 71C      -0.050000
     30 C22         -1.4990    -2.5400    -0.7400 ca         1 71C      -0.079000
     31 C23         -2.8210    -2.3490    -0.3590 ca         1 71C      -0.196000
     32 C24         -3.1060    -1.4100     0.6240 ca         1 71C       0.082100
     33 O25         -4.3660    -1.1420     1.0710 os         1 71C      -0.273200
     34 C27         -5.5440    -3.2090     1.3260 ca         1 71C      -0.123500
     35 C29         -7.5400    -3.5880     0.0290 ca         1 71C      -0.140000
     36 C30         -7.3820    -2.3490    -0.5760 ca         1 71C      -0.110000
     37 C37         -1.3850     4.3680    -0.0800 ca         1 71C      -0.078300
     38 C38         -2.1250     4.9020    -1.1350 ca         1 71C      -0.141000
     39 C39         -2.5810     4.1050    -2.1720 ca         1 71C      -0.139000
     40 C40         -2.3000     2.7440    -2.1590 ca         1 71C      -0.109000
     41 C41         -1.5700     2.2010    -1.1150 ca         1 71C      -0.037000
     42 C42         -1.1010     3.0010    -0.0750 ca         1 71C      -0.038300
     43 H1           3.5980     1.2890     1.4800 ha         1 71C       0.079000
     44 H2           0.1280     0.1990     2.4440 h1         1 71C       0.063200
     45 H3           1.2700    -0.5600     1.3660 h1         1 71C       0.063200
     46 H4          -6.7390    -4.9780     1.4570 ha         1 71C       0.099500
     47 H5          -6.1740    -0.5710    -0.7130 ha         1 71C       0.132500
     48 H6          -2.3250     0.0460     1.9820 ha         1 71C       0.106000
     49 H7           0.5000     2.8140     2.9900 hc         1 71C       0.061200
     50 H8          -1.6010     4.1780     2.7460 hc         1 71C       0.016700
     51 H9          -1.6230     6.0820     1.1740 hc         1 71C       0.030700
     52 H11          3.8000    -2.0400    -2.1170 ha         1 71C       0.122000
     53 H14          0.5470    -1.9730    -0.4770 ha         1 71C       0.183000
     54 H15         -1.2740    -3.2830    -1.4940 ha         1 71C       0.119000
     55 H16         -3.6020    -2.9350    -0.8240 ha         1 71C       0.096000
     56 H17         -4.8280    -3.5370     2.0690 ha         1 71C       0.132500
     57 H18         -8.3770    -4.2200    -0.2360 ha         1 71C       0.094000
     58 H19         -8.0950    -2.0100    -1.3160 ha         1 71C       0.099500
     59 H20         -2.3500     5.9630    -1.1340 ha         1 71C       0.073000
     60 H21         -3.1540     4.5410    -2.9810 ha         1 71C       0.077000
     61 H22         -2.6530     2.1070    -2.9600 ha         1 71C       0.105000
     62 H23         -1.3370     1.1450    -1.1170 ha         1 71C       0.169000
     63 H24         -1.1880     1.8580     1.6690 h1         1 71C       0.023700
     64 H25          1.2100     3.6970     1.6470 hc         1 71C       0.061200
     65 H26         -0.2040     5.1910     3.0600 hc         1 71C       0.016700
     66 H27          0.0310     5.7550     0.7080 hc         1 71C       0.030700
@<TRIPOS>BOND
     1     1     2 ar  
     2     1    18 ar  
     3     1    26 1   
     4     2    22 ar  
     5     2    43 1   
     6     3     4 1   
     7     3    28 1   
     8     3    44 1   
     9     3    45 1   
    10     4     8 ar  
    11     4    29 ar  
    12     5     7 ar  
    13     5    33 1   
    14     5    34 ar  
    15     6    34 ar  
    16     6    35 ar  
    17     6    46 1   
    18     7    36 ar  
    19     7    47 1   
    20     8    32 ar  
    21     8    48 1   
    22     9    10 1   
    23     9    28 1   
    24     9    42 1   
    25     9    63 1   
    26    10    11 1   
    27    10    49 1   
    28    10    64 1   
    29    11    12 1   
    30    11    50 1   
    31    11    65 1   
    32    12    37 1   
    33    12    51 1   
    34    12    66 1   
    35    13    14 1   
    36    14    15 1   
    37    14    16 1   
    38    16    17 ar  
    39    16    22 ar  
    40    17    18 ar  
    41    17    52 1   
    42    18    19 1   
    43    19    20 1   
    44    19    21 1   
    45    22    23 1   
    46    23    24 1   
    47    23    25 1   
    48    26    27 2   
    49    26    28 1   
    50    29    30 ar  
    51    29    53 1   
    52    30    31 ar  
    53    30    54 1   
    54    31    32 ar  
    55    31    55 1   
    56    32    33 1   
    57    34    56 1   
    58    35    36 ar  
    59    35    57 1   
    60    36    58 1   
    61    37    38 ar  
    62    37    42 ar  
    63    38    39 ar  
    64    38    59 1   
    65    39    40 ar  
    66    39    60 1   
    67    40    41 ar  
    68    40    61 1   
    69    41    42 ar  
    70    41    62 1   
@<TRIPOS>SUBSTRUCTURE
     1 71C         1 TEMP              0 ****  ****    0 ROOT
