@<TRIPOS>MOLECULE
71C
   66    70     1     0     0
SMALL
No Charge or Current Charge


@<TRIPOS>ATOM
      1 C10          2.6570     0.4190    -0.2150 ca         1 71C      -0.174600
      2 C11          3.3740     0.0630     0.9500 ca         1 71C      -0.133000
      3 C19          0.2120     0.0990     1.4410 c3         1 71C       0.159300
      4 C20         -0.8790    -0.6600     0.6970 ca         1 71C      -0.057300
      5 C26         -5.4820    -2.0210     0.7420 ca         1 71C       0.140100
      6 C28         -6.1100    -4.3370     1.1750 ca         1 71C      -0.110000
      7 C31         -6.8070    -1.7330     0.3720 ca         1 71C      -0.123500
      8 C32         -2.2330    -0.5030     1.0570 ca         1 71C      -0.141000
      9 C33         -0.3940     2.5200     1.0630 c6         1 71C       0.171000
     10 C34          0.2360     3.5560     2.0230 c6         1 71C      -0.094400
     11 C35         -0.6950     4.7680     2.2130 c6         1 71C      -0.067400
     12 C36         -0.9240     5.4840     0.8650 c6         1 71C      -0.021100
     13 O01          5.6450    -3.5800    -0.9720 o          1 71C      -0.751500
     14 C02          5.8700    -2.5150    -0.4130 c          1 71C       0.734600
     15 O03          6.9880    -2.1750    -0.0470 o          1 71C      -0.751500
     16 C04          4.7450    -1.5090    -0.3150 ca         1 71C      -0.110600
     17 C05          4.0470    -1.1390    -1.4830 ca         1 71C      -0.094000
     18 C06          3.0110    -0.1810    -1.4530 ca         1 71C      -0.169600
     19 C07          2.2950     0.1670    -2.7420 c          1 71C       0.708600
     20 O08          2.9730     0.4180    -3.7280 o          1 71C      -0.757000
     21 O09          1.0770     0.0750    -2.7700 o          1 71C      -0.757000
     22 C12          4.4010    -0.9050     0.9200 ca         1 71C      -0.106600
     23 C13          5.1010    -1.2900     2.2060 c          1 71C       0.743600
     24 O14          5.0530    -2.4600     2.5640 o          1 71C      -0.755000
     25 O15          5.5800    -0.3990     2.8960 o          1 71C      -0.755000
     26 C16          1.6030     1.5090    -0.1470 c          1 71C       0.680700
     27 O17          1.7430     2.5210    -0.8250 o          1 71C      -0.622100
     28 N18          0.5650     1.4050     0.8200 n          1 71C      -0.410800
     29 C21         -0.5430    -1.5230    -0.3650 ca         1 71C      -0.050000
     30 C22         -1.5490    -2.2090    -1.0680 ca         1 71C      -0.079000
     31 C23         -2.8970    -2.0430    -0.7080 ca         1 71C      -0.196000
     32 C24         -3.2380    -1.1970     0.3640 ca         1 71C       0.082100
     33 O25         -4.5510    -1.0050     0.7280 os         1 71C      -0.273200
     34 C27         -5.1350    -3.3240     1.1550 ca         1 71C      -0.123500
     35 C29         -7.4310    -4.0490     0.7920 ca         1 71C      -0.140000
     36 C30         -7.7810    -2.7470     0.3930 ca         1 71C      -0.110000
     37 C37         -1.3130     4.5310    -0.2710 ca         1 71C      -0.078300
     38 C38         -1.9360     5.0620    -1.4170 ca         1 71C      -0.141000
     39 C39         -2.3140     4.2250    -2.4780 ca         1 71C      -0.139000
     40 C40         -2.0700     2.8470    -2.4000 ca         1 71C      -0.109000
     41 C41         -1.4440     2.3060    -1.2650 ca         1 71C      -0.037000
     42 C42         -1.0470     3.1390    -0.1950 ca         1 71C      -0.038300
     43 H1           3.1300     0.5440     1.8940 ha         1 71C       0.079000
     44 H2          -0.1270     0.2870     2.4680 h1         1 71C       0.063200
     45 H3           1.0820    -0.5560     1.5340 h1         1 71C       0.063200
     46 H4          -5.8410    -5.3430     1.4900 ha         1 71C       0.099500
     47 H5          -7.0750    -0.7250     0.0670 ha         1 71C       0.132500
     48 H6          -2.5090     0.1560     1.8760 ha         1 71C       0.106000
     49 H7           0.4450     3.0860     2.9930 hc         1 71C       0.061200
     50 H8          -1.6570     4.4360     2.6270 hc         1 71C       0.016700
     51 H9          -1.6990     6.2530     0.9930 hc         1 71C       0.030700
     52 H11          4.3180    -1.6000    -2.4310 ha         1 71C       0.122000
     53 H14          0.4980    -1.6540    -0.6550 ha         1 71C       0.183000
     54 H15         -1.2820    -2.8650    -1.8940 ha         1 71C       0.119000
     55 H16         -3.6710    -2.5670    -1.2640 ha         1 71C       0.096000
     56 H17         -4.1170    -3.5480     1.4610 ha         1 71C       0.132500
     57 H18         -8.1850    -4.8330     0.8090 ha         1 71C       0.094000
     58 H19         -8.8050    -2.5240     0.1020 ha         1 71C       0.099500
     59 H20         -2.1320     6.1300    -1.4830 ha         1 71C       0.073000
     60 H21         -2.7970     4.6440    -3.3570 ha         1 71C       0.077000
     61 H22         -2.3640     2.1940    -3.2190 ha         1 71C       0.105000
     62 H23         -1.2630     1.2360    -1.2240 ha         1 71C       0.169000
     63 H24         -1.2420     2.0990     1.6210 h1         1 71C       0.023700
     64 H25          1.2020     3.8970     1.6260 hc         1 71C       0.061200
     65 H26         -0.2620     5.4690     2.9390 hc         1 71C       0.016700
     66 H27         -0.0080     6.0190     0.5790 hc         1 71C       0.030700
@<TRIPOS>BOND
     1     1     2 ar  
     2     1    18 ar  
     3     1    26 1   
     4     2    22 ar  
     5     2    43 1   
     6     3     4 1   
     7     3    28 1   
     8     3    44 1   
     9     3    45 1   
    10     4     8 ar  
    11     4    29 ar  
    12     5     7 ar  
    13     5    33 1   
    14     5    34 ar  
    15     6    34 ar  
    16     6    35 ar  
    17     6    46 1   
    18     7    36 ar  
    19     7    47 1   
    20     8    32 ar  
    21     8    48 1   
    22     9    10 1   
    23     9    28 1   
    24     9    42 1   
    25     9    63 1   
    26    10    11 1   
    27    10    49 1   
    28    10    64 1   
    29    11    12 1   
    30    11    50 1   
    31    11    65 1   
    32    12    37 1   
    33    12    51 1   
    34    12    66 1   
    35    13    14 1   
    36    14    15 1   
    37    14    16 1   
    38    16    17 ar  
    39    16    22 ar  
    40    17    18 ar  
    41    17    52 1   
    42    18    19 1   
    43    19    20 1   
    44    19    21 1   
    45    22    23 1   
    46    23    24 1   
    47    23    25 1   
    48    26    27 2   
    49    26    28 1   
    50    29    30 ar  
    51    29    53 1   
    52    30    31 ar  
    53    30    54 1   
    54    31    32 ar  
    55    31    55 1   
    56    32    33 1   
    57    34    56 1   
    58    35    36 ar  
    59    35    57 1   
    60    36    58 1   
    61    37    38 ar  
    62    37    42 ar  
    63    38    39 ar  
    64    38    59 1   
    65    39    40 ar  
    66    39    60 1   
    67    40    41 ar  
    68    40    61 1   
    69    41    42 ar  
    70    41    62 1   
@<TRIPOS>SUBSTRUCTURE
     1 71C         1 TEMP              0 ****  ****    0 ROOT
