@<TRIPOS>MOLECULE
71D
   56    58     1     0     0
SMALL
No Charge or Current Charge


@<TRIPOS>ATOM
      1 C1           3.5670     3.3530     1.4780 ca         1 71D       0.185900
      2 C2           1.6890     2.2620     0.7360 ca         1 71D       0.157500
      3 C3           2.4620     1.1500     0.5100 ca         1 71D      -0.250800
      4 C4           1.6130     0.1280    -0.0280 cc         1 71D      -0.027400
      5 C5           1.9380    -1.2470    -0.3950 ca         1 71D      -0.031800
      6 C6           1.8250    -1.6730    -1.7320 ca         1 71D      -0.094000
      7 C13         -1.8310    -0.5450     0.6090 c3         1 71D      -0.084600
      8 C14         -1.1800    -1.5990     1.3900 c1         1 71D       0.312900
      9 C15         -3.1910    -1.0310     0.1000 c          1 71D       0.605100
     10 C16         -5.6760    -0.6410     0.2460 c3         1 71D       0.109700
     11 C17         -6.2210    -1.7810     1.1280 c3         1 71D      -0.109100
     12 C18         -6.5300     0.6360     0.3510 c3         1 71D      -0.109100
     13 C20         -0.7750     3.8330    -0.8780 c3         1 71D       0.135600
     14 O           -3.3080    -1.9590    -0.6890 o          1 71D      -0.577100
     15 N4          -4.2850    -0.3440     0.5870 ns         1 71D      -0.501900
     16 N3          -0.6860    -2.4310     2.0380 n1         1 71D      -0.435000
     17 C11          0.3260     0.6430    -0.1010 cd         1 71D      -0.078300
     18 N5           0.3750     1.9810     0.3670 na         1 71D      -0.184400
     19 O1          -1.8710     4.7550    -0.7430 os         1 71D      -0.457000
     20 C21         -2.0670     5.6170    -1.8770 c3         1 71D       0.147900
     21 N2           2.2360     3.3920     1.2310 nb         1 71D      -0.237000
     22 N1           4.3980     2.3020     1.2740 nb         1 71D      -0.303000
     23 C            3.8320     1.1910     0.7840 ca         1 71D       0.437900
     24 N            4.6670     0.1480     0.5610 nv         1 71D      -1.066900
     25 C10          2.3760    -2.1540     0.5870 ca         1 71D      -0.094000
     26 C9           2.6880    -3.4800     0.2390 ca         1 71D      -0.101500
     27 C8           2.5670    -3.9020    -1.0950 ca         1 71D       0.123000
     28 Cl           2.9560    -5.5600    -1.5310 cl         1 71D      -0.201000
     29 C7           2.1370    -2.9990    -2.0820 ca         1 71D      -0.101500
     30 H1           4.0160     4.2610     1.8760 h5         1 71D       0.046100
     31 H2           1.4980    -0.9750    -2.5000 ha         1 71D       0.124500
     32 H3          -2.0030     0.2900     1.2960 hc         1 71D       0.080700
     33 H4          -5.7110    -0.9760    -0.8010 h1         1 71D       0.079700
     34 H5          -7.2560    -2.0190     0.8540 hc         1 71D       0.043700
     35 H6          -5.6200    -2.6890     1.0030 hc         1 71D       0.043700
     36 H7          -6.2010    -1.4980     2.1880 hc         1 71D       0.043700
     37 H8          -6.5360     1.0210     1.3780 hc         1 71D       0.043700
     38 H9          -6.1360     1.4190    -0.3090 hc         1 71D       0.043700
     39 H10         -7.5660     0.4330     0.0540 hc         1 71D       0.043700
     40 H11         -0.5370     3.6530     1.2650 h1         1 71D       0.074700
     41 H12         -1.6640     2.4850     0.5600 h1         1 71D       0.074700
     42 H13          0.1730     4.3700    -1.0160 h1         1 71D       0.035700
     43 H14         -0.9280     3.1710    -1.7410 h1         1 71D       0.035700
     44 H15         -4.1030     0.4130     1.2360 hn         1 71D       0.312500
     45 H16         -0.7240    -0.8690    -1.2360 hc         1 71D       0.074200
     46 H17         -1.5350     0.6720    -1.1650 hc         1 71D       0.074200
     47 H18         -1.1750     6.2320    -2.0580 h1         1 71D       0.032367
     48 H19         -2.2750     5.0310    -2.7820 h1         1 71D       0.032367
     49 H20         -2.9160     6.2900    -1.7030 h1         1 71D       0.032367
     50 H21          4.3170    -0.6220    -0.0010 hn         1 71D       0.500000
     51 H22          5.6670     0.3260     0.5340 hn         1 71D       0.500000
     52 H23          2.4650    -1.8310     1.6220 ha         1 71D       0.124500
     53 H24          3.0210    -4.1800     1.0010 ha         1 71D       0.132500
     54 H25          2.0480    -3.3270    -3.1140 ha         1 71D       0.132500
     55 C19         -0.7030     2.9890     0.4080 c3         1 71D       0.075600
     56 C12         -0.9500    -0.0330    -0.5620 c3         1 71D      -0.006200
@<TRIPOS>BOND
     1     1    21 ar  
     2     1    22 ar  
     3     1    30 1   
     4     2     3 ar  
     5     2    18 1   
     6     2    21 ar  
     7     3     4 1   
     8     3    23 ar  
     9     4     5 1   
    10     4    17 2   
    11     5     6 ar  
    12     5    25 ar  
    13     6    29 ar  
    14     6    31 1   
    15     7     8 1   
    16     7     9 1   
    17     7    32 1   
    18     7    56 1   
    19     8    16 3   
    20     9    14 2   
    21     9    15 1   
    22    10    11 1   
    23    10    12 1   
    24    10    15 1   
    25    10    33 1   
    26    11    34 1   
    27    11    35 1   
    28    11    36 1   
    29    12    37 1   
    30    12    38 1   
    31    12    39 1   
    32    13    19 1   
    33    13    42 1   
    34    13    43 1   
    35    13    55 1   
    36    15    44 1   
    37    17    18 1   
    38    17    56 1   
    39    18    55 1   
    40    19    20 1   
    41    20    47 1   
    42    20    48 1   
    43    20    49 1   
    44    22    23 ar  
    45    23    24 1   
    46    24    50 1   
    47    24    51 1   
    48    25    26 ar  
    49    25    52 1   
    50    26    27 ar  
    51    26    53 1   
    52    27    28 1   
    53    27    29 ar  
    54    29    54 1   
    55    40    55 1   
    56    41    55 1   
    57    45    56 1   
    58    46    56 1   
@<TRIPOS>SUBSTRUCTURE
     1 71D         1 TEMP              0 ****  ****    0 ROOT
