@<TRIPOS>MOLECULE
71D
   56    58     1     0     0
SMALL
bcc


@<TRIPOS>ATOM
      1 C1           3.3560     3.3440     1.5440 ca         1 71D       0.711900
      2 C2           1.6220     2.1690     0.8550 ca         1 71D       0.485800
      3 C3           2.4150     1.0710     0.5170 ca         1 71D      -0.381400
      4 C4           1.5450     0.0700    -0.0220 cc         1 71D      -0.027400
      5 C5           1.9120    -1.2760    -0.4850 ca         1 71D      -0.031800
      6 C6           1.6160    -1.6980    -1.7800 ca         1 71D      -0.112000
      7 C13         -1.7680    -0.5980     0.8840 c3         1 71D      -0.084600
      8 C14         -1.0090    -1.6720     1.5060 c1         1 71D       0.223700
      9 C15         -3.1270    -1.1380     0.4250 c          1 71D       0.672100
     10 C16         -5.4970    -0.5220     0.1250 c3         1 71D       0.109700
     11 C17         -6.3130    -1.1100     1.2700 c3         1 71D      -0.109100
     12 C18         -6.1030     0.7640    -0.4160 c3         1 71D      -0.109100
     13 C20         -0.9250     3.5830    -0.6610 c3         1 71D       0.112400
     14 O           -3.2150    -2.2490    -0.0670 o          1 71D      -0.577100
     15 N4          -4.1270    -0.2630     0.5460 ns         1 71D      -0.568900
     16 N3          -0.4070    -2.5130     2.0090 n1         1 71D      -0.345800
     17 C11          0.2820     0.6030     0.0130 cd         1 71D      -0.078300
     18 N5           0.3320     1.8730     0.5560 na         1 71D      -0.155100
     19 O1          -2.0420     4.4160    -0.5290 os         1 71D      -0.410600
     20 C21         -2.3000     5.1670    -1.6890 c3         1 71D       0.124700
     21 N2           2.0500     3.3230     1.3680 nb         1 71D      -0.763000
     22 N1           4.2380     2.3920     1.2550 nb         1 71D      -0.829000
     23 C            3.8000     1.2460     0.7260 ca         1 71D       0.766200
     24 N            4.7130     0.3100     0.4310 nv         1 71D      -0.956500
     25 C10          2.5670    -2.1630     0.3690 ca         1 71D      -0.112000
     26 C9           2.9200    -3.4350    -0.0520 ca         1 71D      -0.119500
     27 C8           2.6030    -3.8310    -1.3420 ca         1 71D       0.031400
     28 CL           3.0350    -5.4230    -1.8740 cl         1 71D      -0.109400
     29 C7           1.9500    -2.9730    -2.2120 ca         1 71D      -0.119500
     30 H1           3.7700     4.2520     1.9710 h5         1 71D       0.046100
     31 H2           1.1310    -1.0210    -2.4710 ha         1 71D       0.142500
     32 H3          -1.8930     0.1830     1.6390 hc         1 71D       0.080700
     33 H4          -5.4470    -1.2520    -0.6850 h1         1 71D       0.079700
     34 H5          -7.3270    -1.3330     0.9390 hc         1 71D       0.043700
     35 H6          -5.8660    -2.0350     1.6350 hc         1 71D       0.043700
     36 H7          -6.3770    -0.4080     2.1040 hc         1 71D       0.043700
     37 H8          -6.1350     1.5410     0.3500 hc         1 71D       0.043700
     38 H9          -5.5310     1.1410    -1.2630 hc         1 71D       0.043700
     39 H10         -7.1250     0.5870    -0.7510 hc         1 71D       0.043700
     40 H11         -0.5620     3.4980     1.4660 h1         1 71D       0.074700
     41 H12         -1.6830     2.2830     0.8860 h1         1 71D       0.074700
     42 H13         -0.0120     4.1600    -0.8630 h1         1 71D       0.035700
     43 H14         -1.0500     2.8810    -1.4980 h1         1 71D       0.035700
     44 H15         -3.9630     0.5870     1.0640 hn         1 71D       0.312500
     45 H16         -0.8500    -0.8360    -1.0600 hc         1 71D       0.074200
     46 H17         -1.6760     0.6840    -0.8430 hc         1 71D       0.074200
     47 H18         -1.4770     5.8500    -1.9280 h1         1 71D       0.032367
     48 H19         -2.4700     4.5260    -2.5620 h1         1 71D       0.032367
     49 H20         -3.1990     5.7580    -1.5140 h1         1 71D       0.032367
     50 H21          4.4720    -0.5030    -0.1090 hn         1 71D       0.444800
     51 H22          5.6880     0.5480     0.4930 hn         1 71D       0.444800
     52 H23          2.7930    -1.8650     1.3850 ha         1 71D       0.142500
     53 H24          3.4280    -4.1100     0.6230 ha         1 71D       0.150500
     54 H25          1.7130    -3.2850    -3.2200 ha         1 71D       0.150500
     55 C19         -0.7620     2.8140     0.6420 c3         1 71D       0.046300
     56 C12         -1.0150    -0.0300    -0.3460 c3         1 71D      -0.006200
@<TRIPOS>BOND
     1     1    21 ar  
     2     1    22 ar  
     3     1    30 1   
     4     2     3 ar  
     5     2    18 1   
     6     2    21 ar  
     7     3     4 1   
     8     3    23 ar  
     9     4     5 1   
    10     4    17 2   
    11     5     6 ar  
    12     5    25 ar  
    13     6    29 ar  
    14     6    31 1   
    15     7     8 1   
    16     7     9 1   
    17     7    32 1   
    18     7    56 1   
    19     8    16 3   
    20     9    14 2   
    21     9    15 1   
    22    10    11 1   
    23    10    12 1   
    24    10    15 1   
    25    10    33 1   
    26    11    34 1   
    27    11    35 1   
    28    11    36 1   
    29    12    37 1   
    30    12    38 1   
    31    12    39 1   
    32    13    19 1   
    33    13    42 1   
    34    13    43 1   
    35    13    55 1   
    36    15    44 1   
    37    17    18 1   
    38    17    56 1   
    39    18    55 1   
    40    19    20 1   
    41    20    47 1   
    42    20    48 1   
    43    20    49 1   
    44    22    23 ar  
    45    23    24 1   
    46    24    50 1   
    47    24    51 1   
    48    25    26 ar  
    49    25    52 1   
    50    26    27 ar  
    51    26    53 1   
    52    27    28 1   
    53    27    29 ar  
    54    29    54 1   
    55    40    55 1   
    56    41    55 1   
    57    45    56 1   
    58    46    56 1   
@<TRIPOS>SUBSTRUCTURE
     1 71D         1 TEMP              0 ****  ****    0 ROOT
