@<TRIPOS>MOLECULE
71E
   83    89     1     0     0
SMALL
No Charge or Current Charge


@<TRIPOS>ATOM
      1 CBE          4.3440    43.1510    22.4710 c3         1 71E      -0.088767
      2 CAY          4.9580    43.8350    21.2170 c3         1 71E      -0.052000
      3 CBF          6.5010    43.6370    21.2450 c3         1 71E      -0.088767
      4 CBG          4.6460    45.3550    21.2960 c3         1 71E      -0.088767
      5 CAX          4.3340    43.2240    19.9120 c3         1 71E       0.101400
      6 NAV          4.5410    41.7530    19.8400 ns         1 71E      -0.490900
      7 C            3.5600    40.7900    19.9540 c          1 71E       0.576100
      8 O            2.3940    41.0840    20.1860 o          1 71E      -0.602100
      9 CA           4.0460    39.3130    19.7990 c3         1 71E       0.041700
     10 N            3.1590    38.4300    20.5870 ns         1 71E      -0.486900
     11 CBO          3.4890    37.1830    21.0710 c          1 71E       0.611100
     12 OBQ          4.5810    36.6730    20.8510 o          1 71E      -0.616100
     13 CBP          2.3440    36.4610    21.8590 c3         1 71E       0.090300
     14 OBS          1.0330    36.7930    21.3280 oh         1 71E      -0.672000
     15 CBR          2.3730    36.7670    23.3910 c3         1 71E      -0.094700
     16 CBU          3.7710    36.5410    24.0220 c3         1 71E      -0.091100
     17 CBT          1.3030    35.9640    24.1760 c3         1 71E      -0.091100
     18 CB           4.0820    38.8410    18.3150 c3         1 71E      -0.024100
     19 CG           5.2130    39.4620    17.5000 ca         1 71E      -0.127300
     20 CD1          5.0000    40.6830    16.8330 ca         1 71E      -0.034000
     21 CAF          6.0790    41.2960    16.1730 ca         1 71E      -0.165300
     22 CD2          6.4830    38.8390    17.4220 ca         1 71E      -0.065000
     23 CAD          7.5360    39.4490    16.7050 ca         1 71E      -0.133000
     24 CAE          7.3110    40.6930    16.1010 ca         1 71E       0.143100
     25 OAG          8.2700    41.4180    15.4350 os         1 71E      -0.373100
     26 CAH          7.6650    42.7250    15.1650 c5         1 71E       0.437500
     27 NAJ          7.6510    42.8680    13.6760 nu         1 71E      -0.940200
     28 CAK          6.3330    42.8680    13.2370 ca         1 71E       0.291000
     29 CAM          5.9190    42.9240    11.8990 ca         1 71E      -0.133000
     30 CAN          4.5370    42.9050    11.6140 ca         1 71E      -0.106000
     31 CAO          3.6010    42.8110    12.6650 ca         1 71E       0.122000
     32 FAQ          2.2800    42.7810    12.3840 f          1 71E      -0.183000
     33 CAP          4.0310    42.7370    14.0030 ca         1 71E      -0.072000
     34 CAL          5.4140    42.7860    14.2610 ca         1 71E      -0.118300
     35 CAI          6.1290    42.6650    15.5690 c5         1 71E       0.017300
     36 CBB          5.6550    43.6350    16.6630 cc         1 71E       0.152300
     37 OBA          5.7840    43.2100    17.9440 os         1 71E      -0.266000
     38 CAZ          4.8150    43.8710    18.6230 cc         1 71E       0.438300
     39 NBD          4.2300    44.8370    17.9300 nd         1 71E      -0.626000
     40 CBC          4.8220    44.7380    16.6700 cd         1 71E       0.235000
     41 CBH          4.5770    45.6140    15.5310 cd         1 71E       0.415000
     42 NBL          3.6800    46.6020    15.5310 nc         1 71E      -0.616000
     43 OBI          5.3510    45.5540    14.4010 os         1 71E      -0.257000
     44 CBJ          4.8490    46.5630    13.6440 cd         1 71E       0.122900
     45 CBK          3.8460    47.2010    14.3130 cc         1 71E       0.231300
     46 CBM          3.0130    48.3810    13.8560 c3         1 71E       0.145300
     47 OBN          3.8190    49.5440    13.5940 oh         1 71E      -0.653000
     48 HD3          4.7170    43.6130    23.3930 hc         1 71E       0.042811
     49 HD4          3.2500    43.2400    22.4690 hc         1 71E       0.042811
     50 HBE          4.5970    42.0850    22.5130 hc         1 71E       0.042811
     51 HD6          6.9310    44.0660    22.1580 hc         1 71E       0.042811
     52 HD5          6.7680    42.5740    21.2210 hc         1 71E       0.042811
     53 HBF          6.9820    44.1270    20.3900 hc         1 71E       0.042811
     54 HBG          5.0130    45.7830    22.2370 hc         1 71E       0.042811
     55 HD8          5.1240    45.9070    20.4770 hc         1 71E       0.042811
     56 HD7          3.5660    45.5380    21.2430 hc         1 71E       0.042811
     57 HAX          3.2530    43.4120    19.9520 h1         1 71E       0.106700
     58 HAV          5.4740    41.4210    19.6240 hn         1 71E       0.330500
     59 HA           5.0580    39.2440    20.2200 h1         1 71E       0.084700
     60 H            2.2100    38.7370    20.7820 hn         1 71E       0.342500
     61 HBP          2.5310    35.3860    21.7260 h1         1 71E       0.069700
     62 HBS          0.3800    36.2090    21.7730 ho         1 71E       0.456000
     63 HBR          2.1370    37.8320    23.5190 hc         1 71E       0.061700
     64 HEC          3.7440    36.7290    25.1020 hc         1 71E       0.040367
     65 HED          4.1090    35.5090    23.8640 hc         1 71E       0.040367
     66 HBU          4.5170    37.2200    23.5930 hc         1 71E       0.040367
     67 HBT          1.3590    36.1890    25.2480 hc         1 71E       0.040367
     68 HEB          0.2890    36.2150    23.8440 hc         1 71E       0.040367
     69 HEA          1.4520    34.8850    24.0470 hc         1 71E       0.040367
     70 HB2          3.1110    39.0500    17.8480 hc         1 71E       0.067700
     71 HB1          4.1900    37.7500    18.2910 hc         1 71E       0.067700
     72 HD1          4.0340    41.1820    16.8870 ha         1 71E       0.137000
     73 HD2          6.6560    37.8910    17.9260 ha         1 71E       0.118000
     74 HAD          8.5150    38.9800    16.6480 ha         1 71E       0.133000
     75 HAH          8.2040    43.5310    15.6850 h2         1 71E       0.105700
     76 HAJ          8.3170    42.3460    13.1070 hn         1 71E       0.496000
     77 HAM          6.6510    42.9890    11.0990 ha         1 71E       0.125000
     78 HAN          4.1920    42.9550    10.5840 ha         1 71E       0.132000
     79 HAP          3.3090    42.6420    14.8090 ha         1 71E       0.146000
     80 HBJ          5.2790    46.7330    12.6660 h4         1 71E       0.065100
     81 HBM          2.4670    48.0880    12.9490 h1         1 71E       0.035700
     82 HD9          2.2640    48.6070    14.6280 h1         1 71E       0.035700
     83 HBN          3.2050    50.2670    13.3320 ho         1 71E       0.441000
@<TRIPOS>BOND
     1     1     2 1   
     2     1    48 1   
     3     1    49 1   
     4     1    50 1   
     5     2     3 1   
     6     2     4 1   
     7     2     5 1   
     8     3    51 1   
     9     3    52 1   
    10     3    53 1   
    11     4    54 1   
    12     4    55 1   
    13     4    56 1   
    14     5     6 1   
    15     5    38 1   
    16     5    57 1   
    17     6     7 1   
    18     6    58 1   
    19     7     8 2   
    20     7     9 1   
    21     9    10 1   
    22     9    18 1   
    23     9    59 1   
    24    10    11 1   
    25    10    60 1   
    26    11    12 2   
    27    11    13 1   
    28    13    14 1   
    29    13    15 1   
    30    13    61 1   
    31    14    62 1   
    32    15    16 1   
    33    15    17 1   
    34    15    63 1   
    35    16    64 1   
    36    16    65 1   
    37    16    66 1   
    38    17    67 1   
    39    17    68 1   
    40    17    69 1   
    41    18    19 1   
    42    18    70 1   
    43    18    71 1   
    44    19    20 ar  
    45    19    22 ar  
    46    20    21 ar  
    47    20    72 1   
    48    21    24 ar  
    49    21    35 1   
    50    22    23 ar  
    51    22    73 1   
    52    23    24 ar  
    53    23    74 1   
    54    24    25 1   
    55    25    26 1   
    56    26    27 1   
    57    26    35 1   
    58    26    75 1   
    59    27    28 1   
    60    27    76 1   
    61    28    29 ar  
    62    28    34 ar  
    63    29    30 ar  
    64    29    77 1   
    65    30    31 ar  
    66    30    78 1   
    67    31    32 1   
    68    31    33 ar  
    69    33    34 ar  
    70    33    79 1   
    71    34    35 1   
    72    35    36 1   
    73    36    37 1   
    74    36    40 2   
    75    37    38 1   
    76    38    39 2   
    77    39    40 1   
    78    40    41 1   
    79    41    42 2   
    80    41    43 1   
    81    42    45 1   
    82    43    44 1   
    83    44    45 2   
    84    44    80 1   
    85    45    46 1   
    86    46    47 1   
    87    46    81 1   
    88    46    82 1   
    89    47    83 1   
@<TRIPOS>SUBSTRUCTURE
     1 71E         1 TEMP              0 ****  ****    0 ROOT
