@<TRIPOS>MOLECULE
71E
   83    89     1     0     0
SMALL
abcg2


@<TRIPOS>ATOM
      1 CBE          5.2130    42.4220    22.5790 c3         1 71E      -0.088767
      2 CAY          5.5060    43.1690    21.2700 c3         1 71E      -0.052000
      3 CBF          6.9970    43.0640    20.9220 c3         1 71E      -0.088767
      4 CBG          5.1270    44.6450    21.4420 c3         1 71E      -0.088767
      5 CAX          4.6150    42.5610    20.1480 c3         1 71E       0.101400
      6 NAV          4.8190    41.1220    20.0200 ns         1 71E      -0.490900
      7 C            3.9370    40.3130    19.4060 c          1 71E       0.576100
      8 O            2.8520    40.7050    18.9830 o          1 71E      -0.602100
      9 CA           4.3450    38.8300    19.3000 c3         1 71E       0.041700
     10 N            3.4860    38.0710    20.1910 ns         1 71E      -0.486900
     11 CBO          3.8270    37.7690    21.4570 c          1 71E       0.611100
     12 OBQ          4.9290    38.0160    21.9450 o          1 71E      -0.616100
     13 CBP          2.7190    37.1370    22.2910 c3         1 71E       0.090300
     14 OBS          1.9900    36.2520    21.4390 oh         1 71E      -0.672000
     15 CBR          1.8070    38.2210    22.9080 c3         1 71E      -0.094700
     16 CBU          2.6000    39.2990    23.6480 c3         1 71E      -0.091100
     17 CBT          0.7770    37.5810    23.8430 c3         1 71E      -0.091100
     18 CB           4.2470    38.3040    17.8550 c3         1 71E      -0.024100
     19 CG           5.2650    38.9740    16.9650 ca         1 71E      -0.127300
     20 CD1          5.0240    40.2640    16.4890 ca         1 71E      -0.034000
     21 CAF          6.0530    40.9770    15.9110 ca         1 71E      -0.165300
     22 CD2          6.5240    38.4050    16.7440 ca         1 71E      -0.065000
     23 CAD          7.5540    39.1020    16.1100 ca         1 71E      -0.133000
     24 CAE          7.3040    40.4130    15.7320 ca         1 71E       0.143100
     25 OAG          8.2270    41.2890    15.2340 os         1 71E      -0.373100
     26 CAH          7.6700    42.6520    15.3500 c5         1 71E       0.437500
     27 NAJ          7.7640    43.3920    14.1410 nu         1 71E      -0.940200
     28 CAK          6.5700    43.3160    13.4260 ca         1 71E       0.291000
     29 CAM          6.3090    43.7200    12.1230 ca         1 71E      -0.133000
     30 CAN          4.9990    43.6290    11.6520 ca         1 71E      -0.106000
     31 CAO          4.0050    43.1410    12.4810 ca         1 71E       0.122000
     32 FAQ          2.7320    43.0580    11.9990 f          1 71E      -0.183000
     33 CAP          4.2470    42.7260    13.7820 ca         1 71E      -0.072000
     34 CAL          5.5470    42.8260    14.2390 ca         1 71E      -0.118300
     35 CAI          6.1220    42.4590    15.5930 c5         1 71E       0.017300
     36 CBB          5.5340    43.2210    16.7430 cc         1 71E       0.152300
     37 OBA          5.6580    42.5980    17.9560 os         1 71E      -0.266000
     38 CAZ          4.7920    43.2020    18.7980 cc         1 71E       0.438300
     39 NBD          4.1710    44.1950    18.2480 nd         1 71E      -0.626000
     40 CBC          4.6470    44.2400    16.9320 cd         1 71E       0.235000
     41 CBH          4.1720    45.2320    15.9930 cd         1 71E       0.415000
     42 NBL          3.0030    45.7890    15.9190 nc         1 71E      -0.616000
     43 OBI          5.0290    45.6570    15.0260 os         1 71E      -0.257000
     44 CBJ          4.3080    46.5450    14.2780 cd         1 71E       0.122900
     45 CBK          3.0700    46.6390    14.8170 cc         1 71E       0.231300
     46 CBM          1.9210    47.4730    14.3820 c3         1 71E       0.145300
     47 OBN          1.7300    48.5300    15.3330 oh         1 71E      -0.653000
     48 HD3          5.7580    42.8940    23.3970 hc         1 71E       0.042811
     49 HD4          4.1470    42.4550    22.8150 hc         1 71E       0.042811
     50 HBE          5.5170    41.3760    22.5310 hc         1 71E       0.042811
     51 HD6          7.5890    43.4920    21.7320 hc         1 71E       0.042811
     52 HD5          7.3230    42.0300    20.7900 hc         1 71E       0.042811
     53 HBF          7.2320    43.6130    20.0080 hc         1 71E       0.042811
     54 HBG          5.7050    45.0750    22.2610 hc         1 71E       0.042811
     55 HD8          5.3360    45.2220    20.5410 hc         1 71E       0.042811
     56 HD7          4.0660    44.7510    21.6780 hc         1 71E       0.042811
     57 HAX          3.5750    42.7280    20.4270 h1         1 71E       0.106700
     58 HAV          5.7180    40.7430    20.2710 hn         1 71E       0.330500
     59 HA           5.3640    38.7020    19.6570 h1         1 71E       0.084700
     60 H            2.5490    37.8450    19.8870 hn         1 71E       0.342500
     61 HBP          3.2120    36.5790    23.0930 h1         1 71E       0.069700
     62 HBS          1.2380    35.8980    21.9290 ho         1 71E       0.456000
     63 HBR          1.2770    38.6900    22.0720 hc         1 71E       0.061700
     64 HEC          1.9120    40.0160    24.0990 hc         1 71E       0.040367
     65 HED          3.2020    38.8600    24.4490 hc         1 71E       0.040367
     66 HBU          3.2690    39.8450    22.9840 hc         1 71E       0.040367
     67 HBT          0.1180    38.3480    24.2530 hc         1 71E       0.040367
     68 HEB          0.1410    36.8530    23.3340 hc         1 71E       0.040367
     69 HEA          1.2740    37.0790    24.6770 hc         1 71E       0.040367
     70 HB2          3.2330    38.4750    17.4880 hc         1 71E       0.067700
     71 HB1          4.4170    37.2270    17.8890 hc         1 71E       0.067700
     72 HD1          4.0640    40.7330    16.6600 ha         1 71E       0.137000
     73 HD2          6.7180    37.4020    17.1070 ha         1 71E       0.118000
     74 HAD          8.5300    38.6560    15.9720 ha         1 71E       0.133000
     75 HAH          8.2050    43.1210    16.1730 h2         1 71E       0.105700
     76 HAJ          8.6520    43.4690    13.6710 hn         1 71E       0.496000
     77 HAM          7.0950    44.1030    11.4870 ha         1 71E       0.125000
     78 HAN          4.7510    43.9360    10.6440 ha         1 71E       0.132000
     79 HAP          3.4440    42.3520    14.4030 ha         1 71E       0.146000
     80 HBJ          4.8040    46.9950    13.4380 h4         1 71E       0.065100
     81 HBM          2.1260    47.8790    13.3870 h1         1 71E       0.035700
     82 HD9          1.0220    46.8520    14.3230 h1         1 71E       0.035700
     83 HBN          0.8810    48.9490    15.1460 ho         1 71E       0.441000
@<TRIPOS>BOND
     1     1     2 1   
     2     1    48 1   
     3     1    49 1   
     4     1    50 1   
     5     2     3 1   
     6     2     4 1   
     7     2     5 1   
     8     3    51 1   
     9     3    52 1   
    10     3    53 1   
    11     4    54 1   
    12     4    55 1   
    13     4    56 1   
    14     5     6 1   
    15     5    38 1   
    16     5    57 1   
    17     6     7 1   
    18     6    58 1   
    19     7     8 2   
    20     7     9 1   
    21     9    10 1   
    22     9    18 1   
    23     9    59 1   
    24    10    11 1   
    25    10    60 1   
    26    11    12 2   
    27    11    13 1   
    28    13    14 1   
    29    13    15 1   
    30    13    61 1   
    31    14    62 1   
    32    15    16 1   
    33    15    17 1   
    34    15    63 1   
    35    16    64 1   
    36    16    65 1   
    37    16    66 1   
    38    17    67 1   
    39    17    68 1   
    40    17    69 1   
    41    18    19 1   
    42    18    70 1   
    43    18    71 1   
    44    19    20 ar  
    45    19    22 ar  
    46    20    21 ar  
    47    20    72 1   
    48    21    24 ar  
    49    21    35 1   
    50    22    23 ar  
    51    22    73 1   
    52    23    24 ar  
    53    23    74 1   
    54    24    25 1   
    55    25    26 1   
    56    26    27 1   
    57    26    35 1   
    58    26    75 1   
    59    27    28 1   
    60    27    76 1   
    61    28    29 ar  
    62    28    34 ar  
    63    29    30 ar  
    64    29    77 1   
    65    30    31 ar  
    66    30    78 1   
    67    31    32 1   
    68    31    33 ar  
    69    33    34 ar  
    70    33    79 1   
    71    34    35 1   
    72    35    36 1   
    73    36    37 1   
    74    36    40 2   
    75    37    38 1   
    76    38    39 2   
    77    39    40 1   
    78    40    41 1   
    79    41    42 2   
    80    41    43 1   
    81    42    45 1   
    82    43    44 1   
    83    44    45 2   
    84    44    80 1   
    85    45    46 1   
    86    46    47 1   
    87    46    81 1   
    88    46    82 1   
    89    47    83 1   
@<TRIPOS>SUBSTRUCTURE
     1 71E         1 TEMP              0 ****  ****    0 ROOT
