@<TRIPOS>MOLECULE
71F
   18    18     1     0     0
SMALL
bcc


@<TRIPOS>ATOM
      1 C1           1.8160     2.4360     0.1040 c3         1 71F       0.129700
      2 O1           0.6400     1.6640    -0.0020 os         1 71F      -0.271900
      3 C2           0.7470     0.3210    -0.0490 ca         1 71F       0.150100
      4 C3          -0.4470    -0.4220    -0.0460 ca         1 71F      -0.146600
      5 C4          -0.3540    -1.8090    -0.0340 ca         1 71F      -0.086000
      6 C5           0.8670    -2.4700    -0.0670 ca         1 71F      -0.193000
      7 C6           2.0330    -1.7250    -0.0780 ca         1 71F      -0.128000
      8 C7           1.9780    -0.3370    -0.0570 ca         1 71F      -0.251000
      9 C8          -1.8320     0.2140    -0.0770 c          1 71F       0.931200
     10 O9          -1.9870     1.2080    -0.8080 o          1 71F      -0.821300
     11 O11         -2.7040    -0.3520     0.6110 o          1 71F      -0.821300
     12 H1           2.3870     2.1960     1.0060 h1         1 71F       0.020367
     13 H2           2.4710     2.3170    -0.7630 h1         1 71F       0.020367
     14 H3           1.4990     3.4740     0.1590 h1         1 71F       0.020367
     15 H4          -1.2690    -2.3870    -0.0070 ha         1 71F       0.140000
     16 H5           0.9030    -3.5520    -0.0760 ha         1 71F       0.104000
     17 H6           2.9990    -2.2150    -0.0960 ha         1 71F       0.097000
     18 H7           2.9050     0.2200    -0.0490 ha         1 71F       0.106000
@<TRIPOS>BOND
     1     1     2 1   
     2     1    12 1   
     3     1    13 1   
     4     1    14 1   
     5     2     3 1   
     6     3     4 ar  
     7     3     8 ar  
     8     4     5 ar  
     9     4     9 1   
    10     5     6 ar  
    11     5    15 1   
    12     6     7 ar  
    13     6    16 1   
    14     7     8 ar  
    15     7    17 1   
    16     8    18 1   
    17     9    10 1   
    18     9    11 1   
@<TRIPOS>SUBSTRUCTURE
     1 71F         1 TEMP              0 ****  ****    0 ROOT
