@<TRIPOS>MOLECULE
71F
   18    18     1     0     0
SMALL
No Charge or Current Charge


@<TRIPOS>ATOM
      1 C1           1.8120     2.5240     0.1130 c3         1 71F       0.152900
      2 O1           0.6510     1.6800     0.0590 os         1 71F      -0.295100
      3 C2           0.7370     0.3020    -0.0130 ca         1 71F       0.150100
      4 C3          -0.4550    -0.4530    -0.0580 ca         1 71F      -0.146600
      5 C4          -0.3880    -1.8620    -0.0960 ca         1 71F      -0.068000
      6 C5           0.8550    -2.5140    -0.1020 ca         1 71F      -0.175000
      7 C6           2.0410    -1.7670    -0.0660 ca         1 71F      -0.110000
      8 C7           1.9850    -0.3650    -0.0190 ca         1 71F      -0.233000
      9 C8          -1.7970     0.2230    -0.0570 c          1 71F       0.720600
     10 O9          -2.0820     0.9570    -0.9940 o          1 71F      -0.716000
     11 O11         -2.5840    -0.0730     0.8310 o          1 71F      -0.716000
     12 H1           2.4160     2.2990     1.0020 h1         1 71F       0.020367
     13 H2           2.4340     2.3890    -0.7810 h1         1 71F       0.020367
     14 H3           1.5130     3.5780     0.1640 h1         1 71F       0.020367
     15 H4          -1.3050    -2.4480    -0.1260 ha         1 71F       0.122000
     16 H5           0.8980    -3.6010    -0.1350 ha         1 71F       0.086000
     17 H6           3.0030    -2.2740    -0.0700 ha         1 71F       0.079000
     18 H7           2.9200     0.1860     0.0160 ha         1 71F       0.088000
@<TRIPOS>BOND
     1     1     2 1   
     2     1    12 1   
     3     1    13 1   
     4     1    14 1   
     5     2     3 1   
     6     3     4 ar  
     7     3     8 ar  
     8     4     5 ar  
     9     4     9 1   
    10     5     6 ar  
    11     5    15 1   
    12     6     7 ar  
    13     6    16 1   
    14     7     8 ar  
    15     7    17 1   
    16     8    18 1   
    17     9    10 1   
    18     9    11 1   
@<TRIPOS>SUBSTRUCTURE
     1 71F         1 TEMP              0 ****  ****    0 ROOT
