@<TRIPOS>MOLECULE
71G
   15    15     1     0     0
SMALL
bcc


@<TRIPOS>ATOM
      1 C3           0.8660     0.0880     0.0210 ca         1 71G       0.025000
      2 C2          -0.1290    -0.8850     0.0440 ca         1 71G      -0.169000
      3 N1          -2.4690    -1.4480     0.1130 nv         1 71G      -0.832200
      4 C4           0.5630     1.4480    -0.0130 ca         1 71G      -0.140000
      5 C6          -1.7780     0.8620    -0.0020 ca         1 71G      -0.182000
      6 C7           2.2340    -0.3250     0.0300 cg         1 71G       0.234800
      7 C1          -1.4750    -0.5080     0.0350 ca         1 71G       0.161600
      8 C5          -0.7740     1.8140    -0.0250 ca         1 71G      -0.090000
      9 N8           3.3370    -0.6570     0.0370 n1         1 71G      -0.366800
     10 H1           0.1410    -1.9340     0.0690 ha         1 71G       0.142000
     11 H2          -2.2290    -2.3850    -0.1680 hn         1 71G       0.402300
     12 H3          -3.3800    -1.1690    -0.2130 hn         1 71G       0.402300
     13 H4           1.3480     2.1890    -0.0310 ha         1 71G       0.145000
     14 H5          -2.8140     1.1760    -0.0130 ha         1 71G       0.133000
     15 H6          -1.0400     2.8630    -0.0540 ha         1 71G       0.135000
@<TRIPOS>BOND
     1     1     2 ar  
     2     1     4 ar  
     3     1     6 1   
     4     2     7 ar  
     5     2    10 1   
     6     3     7 1   
     7     3    11 1   
     8     3    12 1   
     9     4     8 ar  
    10     4    13 1   
    11     5     7 ar  
    12     5     8 ar  
    13     5    14 1   
    14     6     9 3   
    15     8    15 1   
@<TRIPOS>SUBSTRUCTURE
     1 71G         1 TEMP              0 ****  ****    0 ROOT
