@<TRIPOS>MOLECULE
71G
   15    15     1     0     0
SMALL
No Charge or Current Charge


@<TRIPOS>ATOM
      1 C3           0.8980     0.0760     0.0190 ca         1 71G       0.025000
      2 C2          -0.1260    -0.8920     0.0280 ca         1 71G      -0.151000
      3 N1          -2.4650    -1.4410     0.0190 nv         1 71G      -1.081000
      4 C4           0.5620     1.4440    -0.0080 ca         1 71G      -0.122000
      5 C6          -1.8020     0.8650    -0.0150 ca         1 71G      -0.164000
      6 C7           2.2790    -0.3300     0.0370 cg         1 71G       0.324000
      7 C1          -1.4720    -0.4980     0.0100 ca         1 71G       0.300000
      8 C5          -0.7870     1.8380    -0.0250 ca         1 71G      -0.072000
      9 N8           3.3970    -0.6680     0.0500 n1         1 71G      -0.456000
     10 H1           0.1270    -1.9490     0.0490 ha         1 71G       0.124000
     11 H2          -2.2330    -2.4250    -0.1090 hn         1 71G       0.457500
     12 H3          -3.4320    -1.1620    -0.1370 hn         1 71G       0.457500
     13 H4           1.3440     2.2010    -0.0150 ha         1 71G       0.127000
     14 H5          -2.8430     1.1750    -0.0280 ha         1 71G       0.115000
     15 H6          -1.0450     2.8950    -0.0450 ha         1 71G       0.117000
@<TRIPOS>BOND
     1     1     2 ar  
     2     1     4 ar  
     3     1     6 1   
     4     2     7 ar  
     5     2    10 1   
     6     3     7 1   
     7     3    11 1   
     8     3    12 1   
     9     4     8 ar  
    10     4    13 1   
    11     5     7 ar  
    12     5     8 ar  
    13     5    14 1   
    14     6     9 3   
    15     8    15 1   
@<TRIPOS>SUBSTRUCTURE
     1 71G         1 TEMP              0 ****  ****    0 ROOT
