@<TRIPOS>MOLECULE
71H
   84    90     1     0     0
SMALL
abcg2


@<TRIPOS>ATOM
      1 N1           0.1270     0.8810     0.0190 n          1 71H      -0.331000
      2 N3           3.6350    -3.3940    -0.5050 n2         1 71H      -0.299000
      3 C4           1.8100     2.5850    -0.5390 c3         1 71H      -0.097000
      4 C5           0.4910     1.9210    -0.9300 c3         1 71H      -0.017000
      5 C6          -0.5970     1.3030     1.2110 c3         1 71H       0.028000
      6 C7          -2.0780     1.1140     1.0680 DU         1 71H      -0.124000
      7 C8          -2.9900     1.6730    -0.0480 cx         1 71H      -0.144667
      8 C10         -2.8560    -0.2120     0.9460 cx         1 71H      -0.144667
      9 C13         -6.0790     1.1700    -0.3300 ca         1 71H      -0.127500
     10 C15         -8.1590     0.4140     0.6070 ca         1 71H      -0.192000
     11 C17         -6.1100     0.1430     1.8340 ca         1 71H      -0.127500
     12 C21          1.1420    -3.2660    -1.5610 c2         1 71H       0.090000
     13 C22         -0.2020    -3.4170    -2.0970 c2         1 71H      -0.169000
     14 C24          0.7740    -5.5330    -1.8630 c5         1 71H      -0.092000
     15 C26          3.0570    -4.5970    -0.8900 c2         1 71H       0.341000
     16 C28          5.4410    -1.3570     0.3850 c3         1 71H      -0.186000
     17 C32          7.5090     2.1820     1.5430 ca         1 71H       0.109000
     18 C31          7.5090     1.8130     0.2110 ca         1 71H      -0.173000
     19 C30          6.8430     0.6530    -0.1530 ca         1 71H      -0.083000
     20 C33          6.8710     1.4350     2.5140 ca         1 71H      -0.173000
     21 C34          6.2090     0.2790     2.1290 ca         1 71H      -0.083000
     22 C29          6.1920    -0.1280     0.7980 ca         1 71H      -0.102000
     23 C27          3.0340    -2.2690    -0.6700 c2         1 71H       0.040000
     24 O1           3.6700    -5.6490    -0.7580 o          1 71H      -0.312000
     25 C25          1.7290    -4.4840    -1.4120 c2         1 71H      -0.261000
     26 C23         -0.4180    -4.7310    -2.2710 c2         1 71H      -0.122000
     27 N2           1.8040    -2.1160    -1.2430 na         1 71H      -0.176000
     28 C19          0.4840    -0.4060    -0.1020 c2         1 71H       0.295000
     29 O            0.2400    -1.2590     0.7350 o          1 71H      -0.337000
     30 N            2.1720     3.6630    -1.4360 n3         1 71H      -0.253000
     31 C2           1.4440     4.8870    -1.1210 c3         1 71H      -0.068000
     32 C3           1.3600     5.8470    -2.2960 c3         1 71H      -0.208500
     33 C1           3.6150     3.8770    -1.4540 c3         1 71H      -0.068000
     34 C            4.3550     2.8690    -2.3170 c3         1 71H      -0.208500
     35 C11         -3.1510     1.5680     2.0780 cx         1 71H      -0.144667
     36 C9          -3.9250     0.9090     0.9120 DU         1 71H      -0.084000
     37 C12         -5.3910     0.7410     0.7990 ca         1 71H       0.006000
     38 C16         -7.4810    -0.0200     1.7440 ca         1 71H      -0.077500
     39 F2         -10.0860    -0.8300     1.1360 f          1 71H      -0.164333
     40 F1         -10.2590     1.3120     1.1560 f          1 71H      -0.164333
     41 F          -10.1040     0.2670    -0.7160 f          1 71H      -0.164333
     42 C14         -7.4540     1.0100    -0.4300 ca         1 71H      -0.077500
     43 H1           1.7580     2.9210     0.5100 h1         1 71H       0.082000
     44 H2           2.5890     1.8210    -0.5640 h1         1 71H       0.082000
     45 H3           0.5560     1.5260    -1.9430 h1         1 71H       0.097000
     46 H4          -0.3240     2.6460    -0.9540 h1         1 71H       0.097000
     47 H5          -0.2290     0.7620     2.0830 h1         1 71H       0.104000
     48 H6          -0.3790     2.3600     1.3790 h1         1 71H       0.104000
     49 H7          -3.1110     2.7580    -0.0860 hc         1 71H       0.100000
     50 H8          -2.8570     1.2520    -1.0470 hc         1 71H       0.100000
     51 H9          -2.7320    -0.7860     0.0260 hc         1 71H       0.100000
     52 H10         -2.8580    -0.8600     1.8250 hc         1 71H       0.100000
     53 H11         -5.5390     1.6350    -1.1450 ha         1 71H       0.139000
     54 H12         -5.5930    -0.2000     2.7210 ha         1 71H       0.139000
     55 H13          1.9350    -0.1080    -1.7470 h1         1 71H       0.127500
     56 H14          0.4510    -0.8740    -2.2010 h1         1 71H       0.127500
     57 H15         -0.9000    -2.6210    -2.3070 ha         1 71H       0.148000
     58 H16          1.1630    -6.1250    -2.6970 hc         1 71H       0.132500
     59 H17          0.5270    -6.2500    -1.0740 hc         1 71H       0.132500
     60 H18          5.9080    -1.8610    -0.4600 h1         1 71H       0.135000
     61 H19          5.3320    -2.0690     1.2000 h1         1 71H       0.135000
     62 H20          8.0200     2.4170    -0.5270 ha         1 71H       0.153000
     63 H21          6.8330     0.3550    -1.1940 ha         1 71H       0.142500
     64 H22          6.8890     1.7470     3.5490 ha         1 71H       0.153000
     65 H23          5.7010    -0.3140     2.8800 ha         1 71H       0.142500
     66 H24         -1.3300    -5.1700    -2.6470 ha         1 71H       0.147000
     67 H26          0.4260     4.6210    -0.8300 h1         1 71H       0.070000
     68 H27          1.8820     5.3960    -0.2460 h1         1 71H       0.070000
     69 H28          2.3410     6.1820    -2.6340 hc         1 71H       0.077667
     70 H29          0.8550     5.3780    -3.1410 hc         1 71H       0.077667
     71 H30          0.7940     6.7350    -2.0140 hc         1 71H       0.077667
     72 H31          3.8120     4.8740    -1.8500 h1         1 71H       0.070000
     73 H32          4.0280     3.8750    -0.4320 h1         1 71H       0.070000
     74 H33          4.2150     1.8410    -1.9790 hc         1 71H       0.077667
     75 H34          4.0230     2.9320    -3.3540 hc         1 71H       0.077667
     76 H35          5.4270     3.0680    -2.2920 hc         1 71H       0.077667
     77 H36         -3.1730     1.0480     3.0380 hc         1 71H       0.100000
     78 H37         -3.2880     2.6450     2.1990 hc         1 71H       0.100000
     79 H38         -8.0110    -0.4860     2.5640 ha         1 71H       0.148000
     80 H39         -7.9590     1.3590    -1.3210 ha         1 71H       0.148000
     81 C18         -9.6460     0.2860     0.5400 c3         1 71H       0.499000
     82 C20          1.1870    -0.8190    -1.3980 c3         1 71H      -0.063000
     83 S            3.7910    -0.7810    -0.1250 ss         1 71H       0.156000
     84 F3           8.1520     3.3040     1.9040 f          1 71H      -0.107000
@<TRIPOS>BOND
     1     1     4 1   
     2     1     5 1   
     3     1    28 1   
     4     2    15 1   
     5     2    23 1   
     6     3     4 1   
     7     3    30 1   
     8     3    43 1   
     9     3    44 1   
    10     4    45 1   
    11     4    46 1   
    12     5     6 1   
    13     5    47 1   
    14     5    48 1   
    15     6     7 1   
    16     6     8 1   
    17     6    35 1   
    18     6    36 1   
    19     7    36 1   
    20     7    49 1   
    21     7    50 1   
    22     8    36 1   
    23     8    51 1   
    24     8    52 1   
    25     9    37 1   
    26     9    42 1   
    27     9    53 1   
    28    10    38 1   
    29    10    42 1   
    30    10    81 1   
    31    11    37 1   
    32    11    38 1   
    33    11    54 1   
    34    12    13 1   
    35    12    25 1   
    36    12    27 1   
    37    13    26 1   
    38    13    57 1   
    39    14    25 1   
    40    14    26 1   
    41    14    58 1   
    42    14    59 1   
    43    15    24 1   
    44    15    25 1   
    45    16    22 1   
    46    16    60 1   
    47    16    61 1   
    48    16    83 1   
    49    17    18 1   
    50    17    20 1   
    51    17    84 1   
    52    18    19 1   
    53    18    62 1   
    54    19    22 1   
    55    19    63 1   
    56    20    21 1   
    57    20    64 1   
    58    21    22 1   
    59    21    65 1   
    60    23    27 1   
    61    23    83 1   
    62    26    66 1   
    63    27    82 1   
    64    28    29 1   
    65    28    82 1   
    66    30    31 1   
    67    30    33 1   
    68    31    32 1   
    69    31    67 1   
    70    31    68 1   
    71    32    69 1   
    72    32    70 1   
    73    32    71 1   
    74    33    34 1   
    75    33    72 1   
    76    33    73 1   
    77    34    74 1   
    78    34    75 1   
    79    34    76 1   
    80    35    36 1   
    81    35    77 1   
    82    35    78 1   
    83    36    37 1   
    84    38    79 1   
    85    39    81 1   
    86    40    81 1   
    87    41    81 1   
    88    42    80 1   
    89    55    82 1   
    90    56    82 1   
@<TRIPOS>SUBSTRUCTURE
     1 71H         1 TEMP              0 ****  ****    0 ROOT
