@<TRIPOS>MOLECULE
71I
   38    39     1     0     0
SMALL
No Charge or Current Charge


@<TRIPOS>ATOM
      1 O1           4.0300     2.9610    -0.0590 oh         1 71I      -0.701000
      2 C1           4.1630     1.5660     0.2760 c3         1 71I       0.170600
      3 C2           2.8080     0.7860     0.2190 c6         1 71I       0.129300
      4 O2           2.2310     0.9880    -1.0980 os         1 71I      -0.398000
      5 C3           2.9650    -0.7350     0.5250 c6         1 71I       0.099300
      6 O3           3.5150    -0.9730     1.8420 oh         1 71I      -0.720000
      7 C4           1.5830    -1.4240     0.4100 c6         1 71I       0.170300
      8 O4           1.7330    -2.8260     0.6910 oh         1 71I      -0.637000
      9 C5           0.9560    -1.1730    -1.0000 c5         1 71I       0.110500
     10 C6           0.9800     0.3300    -1.4390 c5         1 71I       0.321300
     11 N1          -0.5020    -1.5670    -0.9980 n2         1 71I      -0.669900
     12 C7          -1.1800    -0.5240    -0.7060 c2         1 71I       0.710100
     13 S1          -0.4180     1.0570    -0.5090 ss         1 71I      -0.472200
     14 N2          -2.5190    -0.6760    -0.5510 nu         1 71I      -0.891400
     15 C8          -3.4090     0.3180     0.0560 c3         1 71I       0.228800
     16 C9          -4.8510    -0.2210     0.1200 c3         1 71I      -0.093400
     17 C10         -5.8420     0.7870     0.7440 c3         1 71I      -0.072400
     18 C11         -7.2860     0.2520     0.8100 c3         1 71I      -0.089100
     19 H1           4.9380     3.3450    -0.0590 ho         1 71I       0.504000
     20 H2           4.8670     1.0810    -0.4150 h1         1 71I       0.025700
     21 H3           4.5780     1.4690     1.2880 h1         1 71I       0.025700
     22 H4           2.1340     1.2300     0.9660 h1         1 71I       0.082700
     23 H5           3.6280    -1.1690    -0.2400 h1         1 71I       0.054700
     24 H6           4.4970    -0.8940     1.7790 ho         1 71I       0.510000
     25 H7           0.9270    -0.9700     1.1680 h1         1 71I       0.053700
     26 H8           2.3640    -2.8540     1.4460 ho         1 71I       0.454000
     27 H9           1.5130    -1.7680    -1.7370 h1         1 71I       0.100700
     28 H10          0.7790     0.4180    -2.5160 h2         1 71I       0.112700
     29 H11         -2.8220    -1.6440    -0.5820 hn         1 71I       0.495000
     30 H12         -3.0660     0.5580     1.0720 h1         1 71I       0.050700
     31 H13         -3.3950     1.2450    -0.5340 h1         1 71I       0.050700
     32 H14         -5.1860    -0.4730    -0.8940 hc         1 71I       0.048200
     33 H15         -4.8650    -1.1480     0.7060 hc         1 71I       0.048200
     34 H16         -5.5100     1.0420     1.7590 hc         1 71I       0.041700
     35 H17         -5.8320     1.7160     0.1610 hc         1 71I       0.041700
     36 H18         -7.9500     1.0000     1.2590 hc         1 71I       0.034367
     37 H19         -7.6600     0.0200    -0.1950 hc         1 71I       0.034367
     38 H20         -7.3350    -0.6600     1.4170 hc         1 71I       0.034367
@<TRIPOS>BOND
     1     1     2 1   
     2     1    19 1   
     3     2     3 1   
     4     2    20 1   
     5     2    21 1   
     6     3     4 1   
     7     3     5 1   
     8     3    22 1   
     9     4    10 1   
    10     5     6 1   
    11     5     7 1   
    12     5    23 1   
    13     6    24 1   
    14     7     8 1   
    15     7     9 1   
    16     7    25 1   
    17     8    26 1   
    18     9    10 1   
    19     9    11 1   
    20     9    27 1   
    21    10    13 1   
    22    10    28 1   
    23    11    12 2   
    24    12    13 1   
    25    12    14 1   
    26    14    15 1   
    27    14    29 1   
    28    15    16 1   
    29    15    30 1   
    30    15    31 1   
    31    16    17 1   
    32    16    32 1   
    33    16    33 1   
    34    17    18 1   
    35    17    34 1   
    36    17    35 1   
    37    18    36 1   
    38    18    37 1   
    39    18    38 1   
@<TRIPOS>SUBSTRUCTURE
     1 71I         1 TEMP              0 ****  ****    0 ROOT
