@<TRIPOS>MOLECULE
71I
   38    39     1     0     0
SMALL
abcg2


@<TRIPOS>ATOM
      1 O1           3.6590     2.9600     0.1120 oh         1 71I      -0.701000
      2 C1           3.9940     1.6030     0.2740 c3         1 71I       0.170600
      3 C2           2.7340     0.7710     0.1910 c6         1 71I       0.129300
      4 O2           2.2000     0.9360    -1.1150 os         1 71I      -0.398000
      5 C3           2.9930    -0.7160     0.4410 c6         1 71I       0.099300
      6 O3           3.5090    -0.9490     1.7330 oh         1 71I      -0.720000
      7 C4           1.6700    -1.4650     0.3500 c6         1 71I       0.170300
      8 O4           1.8400    -2.8510     0.4920 oh         1 71I      -0.637000
      9 C5           0.9770    -1.2160    -0.9900 c5         1 71I       0.110500
     10 C6           1.0310     0.2680    -1.3890 c5         1 71I       0.321300
     11 N1          -0.4020    -1.6260    -0.9300 n2         1 71I      -0.669900
     12 C7          -1.1760    -0.6530    -0.6320 c2         1 71I       0.710100
     13 S1          -0.4690     0.9770    -0.5460 ss         1 71I      -0.472200
     14 N2          -2.4950    -0.7790    -0.4050 nu         1 71I      -0.891400
     15 C8          -3.3590     0.2800     0.0770 c3         1 71I       0.228800
     16 C9          -4.7960    -0.2090     0.1570 c3         1 71I      -0.093400
     17 C10         -5.7420     0.8650     0.6760 c3         1 71I      -0.072400
     18 C11         -7.1790     0.3730     0.7870 c3         1 71I      -0.089100
     19 H1           4.4470     3.4820     0.2840 ho         1 71I       0.504000
     20 H2           4.7050     1.2620    -0.4910 h1         1 71I       0.025700
     21 H3           4.4560     1.4190     1.2500 h1         1 71I       0.025700
     22 H4           2.0140     1.1410     0.9380 h1         1 71I       0.082700
     23 H5           3.6780    -1.0920    -0.3320 h1         1 71I       0.054700
     24 H6           4.4690    -0.9200     1.7010 ho         1 71I       0.510000
     25 H7           1.0220    -1.0660     1.1470 h1         1 71I       0.053700
     26 H8           2.2840    -3.0070     1.3320 ho         1 71I       0.454000
     27 H9           1.5110    -1.7860    -1.7590 h1         1 71I       0.100700
     28 H10          0.8600     0.3760    -2.4610 h2         1 71I       0.112700
     29 H11         -2.8110    -1.7280    -0.2720 hn         1 71I       0.495000
     30 H12         -3.0410     0.6320     1.0660 h1         1 71I       0.050700
     31 H13         -3.3030     1.1340    -0.6040 h1         1 71I       0.050700
     32 H14         -5.1200    -0.5440    -0.8340 hc         1 71I       0.048200
     33 H15         -4.8410    -1.0830     0.8160 hc         1 71I       0.048200
     34 H16         -5.3970     1.2100     1.6550 hc         1 71I       0.041700
     35 H17         -5.7060     1.7340     0.0130 hc         1 71I       0.041700
     36 H18         -7.8380     1.1590     1.1580 hc         1 71I       0.034367
     37 H19         -7.5630     0.0500    -0.1820 hc         1 71I       0.034367
     38 H20         -7.2560    -0.4730     1.4720 hc         1 71I       0.034367
@<TRIPOS>BOND
     1     1     2 1   
     2     1    19 1   
     3     2     3 1   
     4     2    20 1   
     5     2    21 1   
     6     3     4 1   
     7     3     5 1   
     8     3    22 1   
     9     4    10 1   
    10     5     6 1   
    11     5     7 1   
    12     5    23 1   
    13     6    24 1   
    14     7     8 1   
    15     7     9 1   
    16     7    25 1   
    17     8    26 1   
    18     9    10 1   
    19     9    11 1   
    20     9    27 1   
    21    10    13 1   
    22    10    28 1   
    23    11    12 2   
    24    12    13 1   
    25    12    14 1   
    26    14    15 1   
    27    14    29 1   
    28    15    16 1   
    29    15    30 1   
    30    15    31 1   
    31    16    17 1   
    32    16    32 1   
    33    16    33 1   
    34    17    18 1   
    35    17    34 1   
    36    17    35 1   
    37    18    36 1   
    38    18    37 1   
    39    18    38 1   
@<TRIPOS>SUBSTRUCTURE
     1 71I         1 TEMP              0 ****  ****    0 ROOT
