@<TRIPOS>MOLECULE
71J
   20    20     1     0     0
SMALL
bcc


@<TRIPOS>ATOM
      1 O            2.8080    -0.1360     0.0760 oh         1 71J      -0.597300
      2 C1          -0.6820     1.2880    -0.1840 c6         1 71J      -0.091400
      3 C            0.7950     1.2370     0.1920 c6         1 71J      -0.091400
      4 C2          -1.4170     0.0610     0.3320 c6         1 71J       0.146100
      5 O1          -2.7690     0.1600    -0.0690 oh         1 71J      -0.597300
      6 C3          -0.7560    -1.2140    -0.1830 c6         1 71J      -0.091400
      7 C4           0.7210    -1.2650     0.1940 c6         1 71J      -0.091400
      8 C5           1.4550    -0.0380    -0.3230 c6         1 71J       0.146100
      9 H1           3.2770     0.6320    -0.2620 ho         1 71J       0.403000
     10 H2          -1.1380     2.1960     0.2190 hc         1 71J       0.050575
     11 H3          -0.7860     1.3390    -1.2740 hc         1 71J       0.050575
     12 H4           1.3090     2.1140    -0.2120 hc         1 71J       0.050575
     13 H5           0.9050     1.2810     1.2820 hc         1 71J       0.050575
     14 H6          -1.3410     0.0590     1.4310 h1         1 71J       0.029700
     15 H7          -3.2390    -0.6080     0.2700 ho         1 71J       0.403000
     16 H8          -1.2710    -2.0900     0.2220 hc         1 71J       0.050575
     17 H9          -0.8660    -1.2580    -1.2720 hc         1 71J       0.050575
     18 H10          0.8250    -1.3150     1.2840 hc         1 71J       0.050575
     19 H11          1.1770    -2.1720    -0.2100 hc         1 71J       0.050575
     20 H12          1.3790    -0.0360    -1.4220 h1         1 71J       0.029700
@<TRIPOS>BOND
     1     1     8 1   
     2     1     9 1   
     3     2     3 1   
     4     2     4 1   
     5     2    10 1   
     6     2    11 1   
     7     3     8 1   
     8     3    12 1   
     9     3    13 1   
    10     4     5 1   
    11     4     6 1   
    12     4    14 1   
    13     5    15 1   
    14     6     7 1   
    15     6    16 1   
    16     6    17 1   
    17     7     8 1   
    18     7    18 1   
    19     7    19 1   
    20     8    20 1   
@<TRIPOS>SUBSTRUCTURE
     1 71J         1 TEMP              0 ****  ****    0 ROOT
