@<TRIPOS>MOLECULE
71J
   20    20     1     0     0
SMALL
No Charge or Current Charge


@<TRIPOS>ATOM
      1 O            2.8470    -0.1040     0.1020 oh         1 71J      -0.659500
      2 C1          -0.6810     1.3150    -0.1860 c6         1 71J      -0.091400
      3 C            0.8210     1.2570     0.1970 c6         1 71J      -0.091400
      4 C2          -1.4450     0.0690     0.3310 c6         1 71J       0.169300
      5 O1          -2.8080     0.1270    -0.0930 oh         1 71J      -0.659500
      6 C3          -0.7820    -1.2330    -0.1880 c6         1 71J      -0.091400
      7 C4           0.7200    -1.2920     0.1950 c6         1 71J      -0.091400
      8 C5           1.4830    -0.0460    -0.3220 c6         1 71J       0.169300
      9 H1           3.3020     0.6640    -0.3090 ho         1 71J       0.442000
     10 H2          -1.1320     2.2270     0.2300 hc         1 71J       0.050575
     11 H3          -0.7800     1.3870    -1.2780 hc         1 71J       0.050575
     12 H4           1.3390     2.1330    -0.2160 hc         1 71J       0.050575
     13 H5           0.9230     1.3180     1.2900 hc         1 71J       0.050575
     14 H6          -1.3990     0.0680     1.4310 h1         1 71J       0.029700
     15 H7          -3.2640    -0.6400     0.3180 ho         1 71J       0.442000
     16 H8          -1.3010    -2.1090     0.2250 hc         1 71J       0.050575
     17 H9          -0.8850    -1.2950    -1.2810 hc         1 71J       0.050575
     18 H10          0.8180    -1.3640     1.2870 hc         1 71J       0.050575
     19 H11          1.1710    -2.2030    -0.2200 hc         1 71J       0.050575
     20 H12          1.4380    -0.0450    -1.4220 h1         1 71J       0.029700
@<TRIPOS>BOND
     1     1     8 1   
     2     1     9 1   
     3     2     3 1   
     4     2     4 1   
     5     2    10 1   
     6     2    11 1   
     7     3     8 1   
     8     3    12 1   
     9     3    13 1   
    10     4     5 1   
    11     4     6 1   
    12     4    14 1   
    13     5    15 1   
    14     6     7 1   
    15     6    16 1   
    16     6    17 1   
    17     7     8 1   
    18     7    18 1   
    19     7    19 1   
    20     8    20 1   
@<TRIPOS>SUBSTRUCTURE
     1 71J         1 TEMP              0 ****  ****    0 ROOT
