@<TRIPOS>MOLECULE
71K
   19    19     1     0     0
SMALL
abcg2


@<TRIPOS>ATOM
      1 C3           1.2110     1.3760    -0.0070 ca         1 71K      -0.214500
      2 C2           0.0130     2.0670     0.0430 ca         1 71K      -0.041000
      3 C1          -1.1960     1.3940     0.0700 ca         1 71K      -0.214500
      4 C4           1.2090    -0.0250    -0.0080 ca         1 71K       0.312500
      5 C5          -0.0050    -0.7260     0.0600 ca         1 71K      -0.188300
      6 C6          -0.0340    -2.2270     0.1300 c3         1 71K      -0.039800
      7 N1           2.4160    -0.7090    -0.0150 nv         1 71K      -1.063000
      8 C           -1.2100    -0.0050     0.0700 ca         1 71K       0.312500
      9 N           -2.4190    -0.6810     0.1450 nv         1 71K      -1.063000
     10 H1           2.1510     1.9120    -0.0550 ha         1 71K       0.110500
     11 H2           0.0220     3.1500     0.0410 ha         1 71K       0.108000
     12 H3          -2.1300     1.9430     0.0850 ha         1 71K       0.110500
     13 H4          -0.8230    -2.5730     0.8000 hc         1 71K       0.038033
     14 H5          -0.2160    -2.6920    -0.8430 hc         1 71K       0.038033
     15 H6           0.9000    -2.6370     0.5130 hc         1 71K       0.038033
     16 H7           2.4200    -1.5770    -0.5270 hn         1 71K       0.439250
     17 H8           3.2060    -0.1440    -0.2850 hn         1 71K       0.439250
     18 H9          -2.4560    -1.5620    -0.3430 hn         1 71K       0.439250
     19 H10         -3.2220    -0.1180    -0.0870 hn         1 71K       0.439250
@<TRIPOS>BOND
     1     1     2 ar  
     2     1     4 ar  
     3     1    10 1   
     4     2     3 ar  
     5     2    11 1   
     6     3     8 ar  
     7     3    12 1   
     8     4     5 ar  
     9     4     7 1   
    10     5     6 1   
    11     5     8 ar  
    12     6    13 1   
    13     6    14 1   
    14     6    15 1   
    15     7    16 1   
    16     7    17 1   
    17     8     9 1   
    18     9    18 1   
    19     9    19 1   
@<TRIPOS>SUBSTRUCTURE
     1 71K         1 TEMP              0 ****  ****    0 ROOT
