@<TRIPOS>MOLECULE
71K
   19    19     1     0     0
SMALL
No Charge or Current Charge


@<TRIPOS>ATOM
      1 C3           1.2140     1.3860    -0.0300 ca         1 71K      -0.214500
      2 C2           0.0110     2.1030     0.0170 ca         1 71K      -0.041000
      3 C1          -1.2030     1.4060     0.0650 ca         1 71K      -0.214500
      4 C4           1.2080    -0.0150    -0.0220 ca         1 71K       0.312500
      5 C5          -0.0110    -0.7310     0.0400 ca         1 71K      -0.188300
      6 C6          -0.0230    -2.2710     0.0520 c3         1 71K      -0.039800
      7 N1           2.4150    -0.6590    -0.0880 nv         1 71K      -1.063000
      8 C           -1.2190     0.0050     0.0730 ca         1 71K       0.312500
      9 N           -2.4380    -0.6190     0.1040 nv         1 71K      -1.063000
     10 H1           2.1550     1.9280    -0.0750 ha         1 71K       0.110500
     11 H2           0.0200     3.1910     0.0110 ha         1 71K       0.108000
     12 H3          -2.1350     1.9640     0.0940 ha         1 71K       0.110500
     13 H4          -0.8790    -2.6770     0.6040 hc         1 71K       0.038033
     14 H5          -0.0650    -2.6680    -0.9690 hc         1 71K       0.038033
     15 H6           0.8660    -2.6910     0.5370 hc         1 71K       0.038033
     16 H7           2.4360    -1.6620    -0.2480 hn         1 71K       0.439250
     17 H8           3.2590    -0.1290    -0.2920 hn         1 71K       0.439250
     18 H9          -2.4880    -1.6220    -0.0530 hn         1 71K       0.439250
     19 H10         -3.2870    -0.0750    -0.0330 hn         1 71K       0.439250
@<TRIPOS>BOND
     1     1     2 ar  
     2     1     4 ar  
     3     1    10 1   
     4     2     3 ar  
     5     2    11 1   
     6     3     8 ar  
     7     3    12 1   
     8     4     5 ar  
     9     4     7 1   
    10     5     6 1   
    11     5     8 ar  
    12     6    13 1   
    13     6    14 1   
    14     6    15 1   
    15     7    16 1   
    16     7    17 1   
    17     8     9 1   
    18     9    18 1   
    19     9    19 1   
@<TRIPOS>SUBSTRUCTURE
     1 71K         1 TEMP              0 ****  ****    0 ROOT
