@<TRIPOS>MOLECULE
71L
   19    19     1     0     0
SMALL
No Charge or Current Charge


@<TRIPOS>ATOM
      1 C4          -0.5320    -1.2000     0.1700 ca         1 71L       0.601900
      2 C6          -0.7640     1.0640     0.0610 ca         1 71L       0.402300
      3 C7           0.6310     1.2420    -0.0070 ca         1 71L      -0.220000
      4 C8          -1.7060     2.2540     0.0330 c3         1 71L      -0.144400
      5 C3           0.8620    -1.1420     0.1080 ca         1 71L      -0.235000
      6 C2           1.4730     0.1180     0.0150 ca         1 71L       0.001700
      7 C1           2.9840     0.2610    -0.0520 c3         1 71L      -0.053800
      8 N5          -1.3430    -0.1530     0.1450 nb         1 71L      -0.756000
      9 N9          -1.2200    -2.3410     0.2500 nv         1 71L      -1.056900
     10 H1           1.0490     2.2420    -0.0760 ha         1 71L       0.120000
     11 H2          -2.5460     2.1150     0.7240 hc         1 71L       0.049033
     12 H3          -1.1900     3.1770     0.3220 hc         1 71L       0.049033
     13 H4          -2.1160     2.4000    -0.9730 hc         1 71L       0.049033
     14 H5           1.4540    -2.0510     0.1330 ha         1 71L       0.118000
     15 H6           3.4090     0.3830     0.9510 hc         1 71L       0.045700
     16 H7           3.4490    -0.6210    -0.5090 hc         1 71L       0.045700
     17 H8           3.2750     1.1340    -0.6490 hc         1 71L       0.045700
     18 H9          -0.7570    -3.1860    -0.0640 hn         1 71L       0.468500
     19 H10         -2.2090    -2.2620     0.0510 hn         1 71L       0.468500
@<TRIPOS>BOND
     1     1     5 ar  
     2     1     8 ar  
     3     1     9 1   
     4     2     3 ar  
     5     2     4 1   
     6     2     8 ar  
     7     3     6 ar  
     8     3    10 1   
     9     4    11 1   
    10     4    12 1   
    11     4    13 1   
    12     5     6 ar  
    13     5    14 1   
    14     6     7 1   
    15     7    15 1   
    16     7    16 1   
    17     7    17 1   
    18     9    18 1   
    19     9    19 1   
@<TRIPOS>SUBSTRUCTURE
     1 71L         1 TEMP              0 ****  ****    0 ROOT
