@<TRIPOS>MOLECULE
71L
   19    19     1     0     0
SMALL
abcg2


@<TRIPOS>ATOM
      1 C4          -0.5660    -1.1890     0.1050 ca         1 71L       0.601900
      2 C6          -0.7450     1.0960     0.0650 ca         1 71L       0.402300
      3 C7           0.6290     1.2550     0.0230 ca         1 71L      -0.220000
      4 C8          -1.6660     2.2790     0.0600 c3         1 71L      -0.144400
      5 C3           0.8380    -1.1200     0.0580 ca         1 71L      -0.235000
      6 C2           1.4460     0.1180     0.0180 ca         1 71L       0.001700
      7 C1           2.9370     0.2520    -0.0150 c3         1 71L      -0.053800
      8 N5          -1.3320    -0.1030     0.1060 nb         1 71L      -0.756000
      9 N9          -1.1980    -2.3950     0.1980 nv         1 71L      -1.056900
     10 H1           1.0640     2.2450    -0.0150 ha         1 71L       0.120000
     11 H2          -2.3010     2.2790     0.9480 hc         1 71L       0.049033
     12 H3          -1.1180     3.2200     0.0350 hc         1 71L       0.049033
     13 H4          -2.3270     2.2480    -0.8070 hc         1 71L       0.049033
     14 H5           1.4290    -2.0280     0.0520 ha         1 71L       0.118000
     15 H6           3.3120     0.6070     0.9470 hc         1 71L       0.045700
     16 H7           3.4240    -0.6980    -0.2320 hc         1 71L       0.045700
     17 H8           3.2510     0.9770    -0.7660 hc         1 71L       0.045700
     18 H9          -0.6960    -3.2100    -0.1120 hn         1 71L       0.468500
     19 H10         -2.1780    -2.4020    -0.0340 hn         1 71L       0.468500
@<TRIPOS>BOND
     1     1     5 ar  
     2     1     8 ar  
     3     1     9 1   
     4     2     3 ar  
     5     2     4 1   
     6     2     8 ar  
     7     3     6 ar  
     8     3    10 1   
     9     4    11 1   
    10     4    12 1   
    11     4    13 1   
    12     5     6 ar  
    13     5    14 1   
    14     6     7 1   
    15     7    15 1   
    16     7    16 1   
    17     7    17 1   
    18     9    18 1   
    19     9    19 1   
@<TRIPOS>SUBSTRUCTURE
     1 71L         1 TEMP              0 ****  ****    0 ROOT
