@<TRIPOS>MOLECULE
71M
   16    16     1     0     0
SMALL
No Charge or Current Charge


@<TRIPOS>ATOM
      1 C7           1.1820     1.1340    -0.0140 ca         1 71M      -0.219000
      2 C6          -0.0170     1.8650    -0.0350 ca         1 71M      -0.034000
      3 C5          -1.2170     1.1410    -0.0830 ca         1 71M      -0.235000
      4 C2           1.1330    -0.2730    -0.0420 ca         1 71M       0.402300
      5 C4          -1.1470    -0.2540    -0.1080 ca         1 71M       0.601900
      6 N3          -0.0280    -0.9640    -0.0850 nb         1 71M      -0.756000
      7 N8          -2.2200    -1.0460    -0.1450 nv         1 71M      -1.057900
      8 H1           2.1380     1.6490     0.0260 ha         1 71M       0.122000
      9 H2          -0.0150     2.9540    -0.0140 ha         1 71M       0.113000
     10 H3          -2.1750     1.6510    -0.1020 ha         1 71M       0.119000
     11 H4           2.5890    -1.4950     0.9930 hc         1 71M       0.049700
     12 H5           2.3420    -1.9510    -0.7030 hc         1 71M       0.049700
     13 H6           3.2760    -0.5040    -0.3050 hc         1 71M       0.049700
     14 H7          -3.0980    -0.6540     0.1770 hn         1 71M       0.469500
     15 H8          -2.0460    -2.0180     0.0780 hn         1 71M       0.469500
     16 C1           2.4040    -1.1010    -0.0140 c3         1 71M      -0.145400
@<TRIPOS>BOND
     1     1     2 ar  
     2     1     4 ar  
     3     1     8 1   
     4     2     3 ar  
     5     2     9 1   
     6     3     5 ar  
     7     3    10 1   
     8     4     6 ar  
     9     4    16 1   
    10     5     6 ar  
    11     5     7 1   
    12     7    14 1   
    13     7    15 1   
    14    11    16 1   
    15    12    16 1   
    16    13    16 1   
@<TRIPOS>SUBSTRUCTURE
     1 71M         1 TEMP              0 ****  ****    0 ROOT
