@<TRIPOS>MOLECULE
71M
   16    16     1     0     0
SMALL
abcg2


@<TRIPOS>ATOM
      1 C7           1.2010     1.1260    -0.0590 ca         1 71M      -0.219000
      2 C6          -0.0120     1.8130    -0.0760 ca         1 71M      -0.034000
      3 C5          -1.1970     1.1140    -0.0770 ca         1 71M      -0.235000
      4 C2           1.1660    -0.2590    -0.0380 ca         1 71M       0.402300
      5 C4          -1.1340    -0.2910    -0.0590 ca         1 71M       0.601900
      6 N3           0.0220    -0.9470    -0.0370 nb         1 71M      -0.756000
      7 N8          -2.2720    -1.0420    -0.1110 nv         1 71M      -1.057900
      8 H1           2.1430     1.6570    -0.0570 ha         1 71M       0.122000
      9 H2          -0.0250     2.8950    -0.0880 ha         1 71M       0.113000
     10 H3          -2.1520     1.6240    -0.0920 ha         1 71M       0.119000
     11 H4           2.4610    -1.7010     0.8790 hc         1 71M       0.049700
     12 H5           2.4780    -1.7330    -0.8760 hc         1 71M       0.049700
     13 H6           3.3130    -0.4380    -0.0140 hc         1 71M       0.049700
     14 H7          -3.1340    -0.6070     0.1730 hn         1 71M       0.469500
     15 H8          -2.1840    -2.0060     0.1670 hn         1 71M       0.469500
     16 C1           2.4270    -1.0700    -0.0110 c3         1 71M      -0.145400
@<TRIPOS>BOND
     1     1     2 ar  
     2     1     4 ar  
     3     1     8 1   
     4     2     3 ar  
     5     2     9 1   
     6     3     5 ar  
     7     3    10 1   
     8     4     6 ar  
     9     4    16 1   
    10     5     6 ar  
    11     5     7 1   
    12     7    14 1   
    13     7    15 1   
    14    11    16 1   
    15    12    16 1   
    16    13    16 1   
@<TRIPOS>SUBSTRUCTURE
     1 71M         1 TEMP              0 ****  ****    0 ROOT
