@<TRIPOS>MOLECULE
71N
   20    21     1     0     0
SMALL
abcg2


@<TRIPOS>ATOM
      1 F3           3.0150    -1.2430    -0.5360 f          1 71N      -0.100333
      2 F1           3.0780    -0.1160     1.2940 f          1 71N      -0.100333
      3 F2           3.1820     0.9100    -0.5940 f          1 71N      -0.100333
      4 C12         -0.9370    -0.4930     0.0690 ca         1 71N       0.099400
      5 C11         -2.1760    -1.1360     0.1110 ca         1 71N      -0.121000
      6 C8          -1.9970     1.7010    -0.0320 ca         1 71N      -0.079000
      7 C7          -0.8570     0.9050    -0.0000 ca         1 71N      -0.104200
      8 C9          -3.2140     1.0560     0.0150 ca         1 71N      -0.131000
      9 C10         -3.3240    -0.3560     0.0900 ca         1 71N       0.264000
     10 C4           1.1210    -0.0040     0.0110 cc         1 71N       0.297800
     11 C1           2.6090    -0.1160     0.0400 c3         1 71N       0.313700
     12 N5           0.4850     1.1850    -0.0340 na         1 71N      -0.282600
     13 N6           0.3260    -1.0320     0.0740 nd         1 71N      -0.524100
     14 H1          -2.2350    -2.2160     0.1600 ha         1 71N       0.134000
     15 H2          -1.9430     2.7800    -0.0910 ha         1 71N       0.121000
     16 H3          -4.1210     1.6480    -0.0030 ha         1 71N       0.117000
     17 H4           0.9050     2.1000    -0.0990 hn         1 71N       0.371000
     18 H6          -4.6330    -1.8970    -0.0660 hn         1 71N       0.444000
     19 H7          -5.3250    -0.3990    -0.2360 hn         1 71N       0.444000
     20 N13         -4.5820    -0.9250     0.1950 nv         1 71N      -1.063000
@<TRIPOS>BOND
     1     1    11 1   
     2     2    11 1   
     3     3    11 1   
     4     4     5 ar  
     5     4     7 ar  
     6     4    13 1   
     7     5     9 ar  
     8     5    14 1   
     9     6     7 ar  
    10     6     8 ar  
    11     6    15 1   
    12     7    12 1   
    13     8     9 ar  
    14     8    16 1   
    15     9    20 1   
    16    10    11 1   
    17    10    12 1   
    18    10    13 2   
    19    12    17 1   
    20    18    20 1   
    21    19    20 1   
@<TRIPOS>SUBSTRUCTURE
     1 71N         1 TEMP              0 ****  ****    0 ROOT
