@<TRIPOS>MOLECULE
71N
   20    21     1     0     0
SMALL
No Charge or Current Charge


@<TRIPOS>ATOM
      1 F3           3.1410    -1.1060    -0.7390 f          1 71N      -0.100333
      2 F1           3.1510    -0.3560     1.3060 f          1 71N      -0.100333
      3 F2           3.2720     1.0330    -0.3660 f          1 71N      -0.100333
      4 C12         -0.9500    -0.4870     0.0710 ca         1 71N       0.099400
      5 C11         -2.1940    -1.1280     0.1170 ca         1 71N      -0.121000
      6 C8          -1.9960     1.6970    -0.0910 ca         1 71N      -0.079000
      7 C7          -0.8690     0.8710    -0.0280 ca         1 71N      -0.104200
      8 C9          -3.2600     1.0710    -0.0470 ca         1 71N      -0.131000
      9 C10         -3.3600    -0.3370     0.0560 ca         1 71N       0.264000
     10 C4           1.1650    -0.0170     0.0390 cc         1 71N       0.297800
     11 C1           2.6850    -0.1110     0.0590 c3         1 71N       0.313700
     12 N5           0.4540     1.1860    -0.0480 na         1 71N      -0.282600
     13 N6           0.3130    -1.0670     0.1170 nd         1 71N      -0.524100
     14 H1          -2.2530    -2.2090     0.1970 ha         1 71N       0.134000
     15 H2          -1.9050     2.7790    -0.1690 ha         1 71N       0.121000
     16 H3          -4.1600     1.6780    -0.0920 ha         1 71N       0.117000
     17 H4           0.8600     2.1120    -0.1130 hn         1 71N       0.371000
     18 H6          -4.6810    -1.9460     0.0590 hn         1 71N       0.444000
     19 H7          -5.4390    -0.3790    -0.0560 hn         1 71N       0.444000
     20 N13         -4.5970    -0.9320     0.0970 nv         1 71N      -1.063000
@<TRIPOS>BOND
     1     1    11 1   
     2     2    11 1   
     3     3    11 1   
     4     4     5 ar  
     5     4     7 ar  
     6     4    13 1   
     7     5     9 ar  
     8     5    14 1   
     9     6     7 ar  
    10     6     8 ar  
    11     6    15 1   
    12     7    12 1   
    13     8     9 ar  
    14     8    16 1   
    15     9    20 1   
    16    10    11 1   
    17    10    12 1   
    18    10    13 2   
    19    12    17 1   
    20    18    20 1   
    21    19    20 1   
@<TRIPOS>SUBSTRUCTURE
     1 71N         1 TEMP              0 ****  ****    0 ROOT
