@<TRIPOS>MOLECULE
71O
   11    11     1     0     0
SMALL
abcg2


@<TRIPOS>ATOM
      1 CAB          1.0090     1.1590     0.0730 ca         1 71O       0.146400
      2 CAC          1.8170     0.0430    -0.0470 ca         1 71O      -0.261000
      3 CAD          1.1660    -1.1790    -0.0740 ca         1 71O       0.146400
      4 CAF         -0.8230    -0.1500     0.1090 ca         1 71O       0.350300
      5 NAA         -0.3130     1.0700     0.1390 nb         1 71O      -0.222500
      6 NAE         -0.1530    -1.2870     0.0070 nb         1 71O      -0.222500
      7 OAG         -2.1480    -0.2760     0.1460 oh         1 71O      -0.621300
      8 HAB          1.4330     2.1560     0.0980 h4         1 71O       0.027600
      9 HAC          2.8920     0.1190    -0.1070 ha         1 71O       0.139000
     10 HAD          1.7270    -2.1020    -0.1680 h4         1 71O       0.027600
     11 HAG         -2.5430     0.5390     0.4820 ho         1 71O       0.491000
@<TRIPOS>BOND
     1     1     2 ar  
     2     1     5 ar  
     3     1     8 1   
     4     2     3 ar  
     5     2     9 1   
     6     3     6 ar  
     7     3    10 1   
     8     4     5 ar  
     9     4     6 ar  
    10     4     7 1   
    11     7    11 1   
@<TRIPOS>SUBSTRUCTURE
     1 71O         1 TEMP              0 ****  ****    0 ROOT
