@<TRIPOS>MOLECULE
71O
   11    11     1     0     0
SMALL
No Charge or Current Charge


@<TRIPOS>ATOM
      1 CAB          1.0060     1.1770     0.0850 ca         1 71O       0.146400
      2 CAC          1.8230     0.0440    -0.0550 ca         1 71O      -0.261000
      3 CAD          1.1930    -1.2110    -0.0870 ca         1 71O       0.146400
      4 CAF         -0.8420    -0.1800     0.1450 ca         1 71O       0.350300
      5 NAA         -0.3340     1.0670     0.1870 nb         1 71O      -0.222500
      6 NAE         -0.1460    -1.3260     0.0140 nb         1 71O      -0.222500
      7 OAG         -2.1910    -0.2880     0.2470 oh         1 71O      -0.621300
      8 HAB          1.4250     2.1820     0.1180 h4         1 71O       0.027600
      9 HAC          2.9030     0.1340    -0.1370 ha         1 71O       0.139000
     10 HAD          1.7630    -2.1330    -0.1940 h4         1 71O       0.027600
     11 HAG         -2.5380     0.6250     0.3360 ho         1 71O       0.491000
@<TRIPOS>BOND
     1     1     2 ar  
     2     1     5 ar  
     3     1     8 1   
     4     2     3 ar  
     5     2     9 1   
     6     3     6 ar  
     7     3    10 1   
     8     4     5 ar  
     9     4     6 ar  
    10     4     7 1   
    11     7    11 1   
@<TRIPOS>SUBSTRUCTURE
     1 71O         1 TEMP              0 ****  ****    0 ROOT
