@<TRIPOS>MOLECULE
71P
   54    56     1     0     0
SMALL
No Charge or Current Charge


@<TRIPOS>ATOM
      1 CBA          0.5880     1.3340    -2.4770 c3         1 71P       0.143900
      2 OAW          1.3190     1.9540    -1.4040 os         1 71P      -0.352100
      3 CAP          1.9420     1.1650    -0.4560 ca         1 71P       0.145100
      4 CAQ          1.1730     0.3750     0.4440 ca         1 71P      -0.122800
      5 CAR         -0.3130     0.4530     0.4820 cc         1 71P      -0.015200
      6 CAX         -0.7200     1.7710     0.6770 cd         1 71P      -0.117000
      7 CAY         -2.0350     2.3270     0.8220 cd         1 71P      -0.166000
      8 CAZ         -3.2360     1.6550     0.8510 cc         1 71P      -0.050600
      9 SBB         -4.5450     2.8310     1.0510 ss         1 71P      -0.192600
     10 CBC         -5.4100     2.7040    -0.5750 c3         1 71P      -0.019100
     11 CAU         -3.5300     0.2070     0.8190 c          1 71P       0.578500
     12 OAV         -4.6880    -0.1820     0.9280 o          1 71P      -0.552100
     13 CAT         -2.4940    -0.8180     0.6620 cd         1 71P      -0.276200
     14 CAS         -1.1210    -0.7600     0.4940 cc         1 71P      -0.000200
     15 CAH         -0.3430    -2.0590     0.2820 c3         1 71P       0.137900
     16 NAI         -1.1230    -3.1540    -0.3070 ns         1 71P      -0.512900
     17 CAJ         -1.3880    -3.2850    -1.6500 c          1 71P       0.603100
     18 OAK         -0.9940    -2.4820    -2.4820 o          1 71P      -0.602100
     19 CAL         -2.2120    -4.5100    -2.0200 c3         1 71P      -0.179100
     20 CAG          0.3450    -2.5260     1.5810 c3         1 71P      -0.079400
     21 CAF          1.0940    -1.3860     2.3030 c3         1 71P      -0.031100
     22 CAE          1.8590    -0.4990     1.3230 ca         1 71P      -0.025300
     23 CAD          3.2630    -0.5450     1.3250 ca         1 71P      -0.201000
     24 CAC          4.0290     0.2670     0.4610 ca         1 71P       0.139100
     25 OAB          5.4140     0.2060     0.4950 os         1 71P      -0.324100
     26 CAA          6.1460    -0.6510     1.3890 c3         1 71P       0.144900
     27 CAO          3.3580     1.1350    -0.4490 ca         1 71P       0.050100
     28 OAN          3.9980     1.9650    -1.3730 os         1 71P      -0.330100
     29 CAM          5.4220     2.0770    -1.5390 c3         1 71P       0.149900
     30 H1           1.2440     0.6740    -3.0590 h1         1 71P       0.045033
     31 H2          -0.2520     0.7370    -2.1020 h1         1 71P       0.045033
     32 H3           0.1840     2.0970    -3.1540 h1         1 71P       0.045033
     33 H4           0.0650     2.5210     0.7270 ha         1 71P       0.192000
     34 H5          -2.0650     3.4100     0.9240 ha         1 71P       0.178000
     35 H6          -4.7090     2.9400    -1.3850 h1         1 71P       0.067033
     36 H7          -5.7980     1.6880    -0.7160 h1         1 71P       0.067033
     37 H8          -6.2460     3.4140    -0.6030 h1         1 71P       0.067033
     38 H9          -2.9650    -1.7920     0.6800 ha         1 71P       0.190000
     39 H10          0.4540    -1.8510    -0.4440 h1         1 71P       0.086700
     40 H11         -1.4820    -3.8780     0.3030 hn         1 71P       0.316500
     41 H12         -3.1440    -4.4990    -1.4440 hc         1 71P       0.062367
     42 H13         -2.4030    -4.5810    -3.0970 hc         1 71P       0.062367
     43 H14         -1.7110    -5.4060    -1.6380 hc         1 71P       0.062367
     44 H15         -0.3980    -2.9530     2.2660 hc         1 71P       0.049200
     45 H16          1.0550    -3.3260     1.3360 hc         1 71P       0.049200
     46 H17          0.3740    -0.7790     2.8660 hc         1 71P       0.057700
     47 H18          1.7620    -1.8200     3.0560 hc         1 71P       0.057700
     48 H19          3.7470    -1.2230     2.0210 ha         1 71P       0.121000
     49 H20          5.9210    -0.4080     2.4360 h1         1 71P       0.043033
     50 H21          5.8990    -1.7060     1.2090 h1         1 71P       0.043033
     51 H22          7.2250    -0.5250     1.2360 h1         1 71P       0.043033
     52 H23          5.8990     2.4310    -0.6150 h1         1 71P       0.035033
     53 H24          5.8610     1.1130    -1.8270 h1         1 71P       0.035033
     54 H25          5.6530     2.7990    -2.3310 h1         1 71P       0.035033
@<TRIPOS>BOND
     1     1     2 1   
     2     1    30 1   
     3     1    31 1   
     4     1    32 1   
     5     2     3 1   
     6     3     4 ar  
     7     3    27 ar  
     8     4     5 1   
     9     4    22 ar  
    10     5     6 2   
    11     5    14 1   
    12     6     7 1   
    13     6    33 1   
    14     7     8 2   
    15     7    34 1   
    16     8     9 1   
    17     8    11 1   
    18     9    10 1   
    19    10    35 1   
    20    10    36 1   
    21    10    37 1   
    22    11    12 2   
    23    11    13 1   
    24    13    14 2   
    25    13    38 1   
    26    14    15 1   
    27    15    16 1   
    28    15    20 1   
    29    15    39 1   
    30    16    17 1   
    31    16    40 1   
    32    17    18 2   
    33    17    19 1   
    34    19    41 1   
    35    19    42 1   
    36    19    43 1   
    37    20    21 1   
    38    20    44 1   
    39    20    45 1   
    40    21    22 1   
    41    21    46 1   
    42    21    47 1   
    43    22    23 ar  
    44    23    24 ar  
    45    23    48 1   
    46    24    25 1   
    47    24    27 ar  
    48    25    26 1   
    49    26    49 1   
    50    26    50 1   
    51    26    51 1   
    52    27    28 1   
    53    28    29 1   
    54    29    52 1   
    55    29    53 1   
    56    29    54 1   
@<TRIPOS>SUBSTRUCTURE
     1 71P         1 TEMP              0 ****  ****    0 ROOT
