@<TRIPOS>MOLECULE
71P
   54    56     1     0     0
SMALL
abcg2


@<TRIPOS>ATOM
      1 CBA          0.7910     0.9120    -2.5740 c3         1 71P       0.143900
      2 OAW          1.2880     1.7550    -1.5420 os         1 71P      -0.352100
      3 CAP          1.8780     1.1020    -0.5090 ca         1 71P       0.145100
      4 CAQ          1.1140     0.3950     0.4290 ca         1 71P      -0.122800
      5 CAR         -0.3730     0.4170     0.3870 cc         1 71P      -0.015200
      6 CAX         -0.9630     1.6500     0.4150 cd         1 71P      -0.117000
      7 CAY         -2.3200     2.0420     0.4140 cd         1 71P      -0.166000
      8 CAZ         -3.4610     1.2970     0.4490 cc         1 71P      -0.050600
      9 SBB         -5.0640     1.9880     0.4680 ss         1 71P      -0.192600
     10 CBC         -4.7650     3.7600     0.3600 c3         1 71P      -0.019100
     11 CAU         -3.5650    -0.1630     0.5040 c          1 71P       0.578500
     12 OAV         -4.6930    -0.6520     0.6040 o          1 71P      -0.552100
     13 CAT         -2.4200    -1.0340     0.4160 cd         1 71P      -0.276200
     14 CAS         -1.0760    -0.8330     0.3520 cc         1 71P      -0.000200
     15 CAH         -0.1820    -2.0700     0.2810 c3         1 71P       0.137900
     16 NAI         -0.8280    -3.2400    -0.2480 ns         1 71P      -0.512900
     17 CAJ         -1.0750    -3.3950    -1.5650 c          1 71P       0.603100
     18 OAK         -0.7790    -2.5410    -2.3880 o          1 71P      -0.602100
     19 CAL         -1.7570    -4.6830    -1.9480 c3         1 71P      -0.179100
     20 CAG          0.4020    -2.3920     1.6610 c3         1 71P      -0.079400
     21 CAF          0.9590    -1.1570     2.3770 c3         1 71P      -0.031100
     22 CAE          1.7700    -0.3060     1.4420 ca         1 71P      -0.025300
     23 CAD          3.1540    -0.2520     1.5520 ca         1 71P      -0.201000
     24 CAC          3.9070     0.4980     0.6550 ca         1 71P       0.139100
     25 OAB          5.2400     0.6350     0.7050 os         1 71P      -0.324100
     26 CAA          5.9490    -0.0290     1.7340 c3         1 71P       0.144900
     27 CAO          3.2630     1.1640    -0.3990 ca         1 71P       0.050100
     28 OAN          3.9820     1.8980    -1.2850 os         1 71P      -0.330100
     29 CAM          4.6120     1.1520    -2.3180 c3         1 71P       0.149900
     30 H1           1.6040     0.3980    -3.0920 h1         1 71P       0.045033
     31 H2           0.0950     0.1610    -2.1950 h1         1 71P       0.045033
     32 H3           0.2670     1.5510    -3.2820 h1         1 71P       0.045033
     33 H4          -0.2850     2.4940     0.4540 ha         1 71P       0.192000
     34 H5          -2.4370     3.1170     0.4050 ha         1 71P       0.178000
     35 H6          -4.2150     4.1360     1.2220 h1         1 71P       0.067033
     36 H7          -4.2480     4.0320    -0.5590 h1         1 71P       0.067033
     37 H8          -5.7500     4.2230     0.3520 h1         1 71P       0.067033
     38 H9          -2.7360    -2.0720     0.3910 ha         1 71P       0.190000
     39 H10          0.6440    -1.8280    -0.3930 h1         1 71P       0.086700
     40 H11         -1.1090    -3.9680     0.3890 hn         1 71P       0.316500
     41 H12         -2.7860    -4.4710    -2.2410 hc         1 71P       0.062367
     42 H13         -1.2560    -5.1190    -2.8110 hc         1 71P       0.062367
     43 H14         -1.7760    -5.4180    -1.1460 hc         1 71P       0.062367
     44 H15         -0.3710    -2.8460     2.2890 hc         1 71P       0.049200
     45 H16          1.1910    -3.1360     1.5280 hc         1 71P       0.049200
     46 H17          0.1350    -0.5720     2.7920 hc         1 71P       0.057700
     47 H18          1.5650    -1.4810     3.2240 hc         1 71P       0.057700
     48 H19          3.6300    -0.7940     2.3580 ha         1 71P       0.121000
     49 H20          5.6380     0.3070     2.7260 h1         1 71P       0.043033
     50 H21          5.8300    -1.1140     1.6750 h1         1 71P       0.043033
     51 H22          6.9980     0.2160     1.5930 h1         1 71P       0.043033
     52 H23          5.3500     0.4500    -1.9260 h1         1 71P       0.035033
     53 H24          3.8850     0.5960    -2.9160 h1         1 71P       0.035033
     54 H25          5.1170     1.8670    -2.9640 h1         1 71P       0.035033
@<TRIPOS>BOND
     1     1     2 1   
     2     1    30 1   
     3     1    31 1   
     4     1    32 1   
     5     2     3 1   
     6     3     4 ar  
     7     3    27 ar  
     8     4     5 1   
     9     4    22 ar  
    10     5     6 2   
    11     5    14 1   
    12     6     7 1   
    13     6    33 1   
    14     7     8 2   
    15     7    34 1   
    16     8     9 1   
    17     8    11 1   
    18     9    10 1   
    19    10    35 1   
    20    10    36 1   
    21    10    37 1   
    22    11    12 2   
    23    11    13 1   
    24    13    14 2   
    25    13    38 1   
    26    14    15 1   
    27    15    16 1   
    28    15    20 1   
    29    15    39 1   
    30    16    17 1   
    31    16    40 1   
    32    17    18 2   
    33    17    19 1   
    34    19    41 1   
    35    19    42 1   
    36    19    43 1   
    37    20    21 1   
    38    20    44 1   
    39    20    45 1   
    40    21    22 1   
    41    21    46 1   
    42    21    47 1   
    43    22    23 ar  
    44    23    24 ar  
    45    23    48 1   
    46    24    25 1   
    47    24    27 ar  
    48    25    26 1   
    49    26    49 1   
    50    26    50 1   
    51    26    51 1   
    52    27    28 1   
    53    28    29 1   
    54    29    52 1   
    55    29    53 1   
    56    29    54 1   
@<TRIPOS>SUBSTRUCTURE
     1 71P         1 TEMP              0 ****  ****    0 ROOT
