@<TRIPOS>MOLECULE
71Q
   45    47     1     0     0
SMALL
abcg2


@<TRIPOS>ATOM
      1 N1          -1.6380     0.8960     1.0770 n3         1 71Q      -0.702600
      2 C3           4.9200    -0.7670     0.2580 ca         1 71Q      -0.166300
      3 N2          -4.3900     0.2410     0.9470 n          1 71Q      -0.408800
      4 C4           5.4850    -1.8660     1.1040 c3         1 71Q       0.359300
      5 C9          -2.6490     1.8020     1.5920 c6         1 71Q       0.149300
      6 C8          -0.4360     1.5940     0.7170 c3         1 71Q       0.091800
      7 C7           0.7760     0.6770     0.6740 c          1 71Q       0.604100
      8 C6           3.0620     0.6770    -0.2920 ca         1 71Q      -0.007000
      9 C5           3.6340    -0.3120     0.5090 ca         1 71Q      -0.086000
     10 C10         -3.8830     1.0420     2.0470 c6         1 71Q       0.102000
     11 C12         -6.1260    -0.3060    -0.6800 cc         1 71Q       0.057500
     12 C13         -7.3530    -0.7950    -0.9990 cd         1 71Q      -0.112000
     13 C14         -7.2820    -1.1920    -2.3630 cd         1 71Q      -0.196000
     14 C15         -6.0240    -0.8970    -2.7710 cc         1 71Q       0.136900
     15 C16         -3.3840    -0.6780     0.4450 c6         1 71Q       0.102000
     16 C17         -2.1580     0.0900    -0.0130 c6         1 71Q       0.149300
     17 N            1.7900     1.1920    -0.0790 ns         1 71Q      -0.158000
     18 C            3.8350     1.1880    -1.3430 ca         1 71Q       0.080000
     19 O           -5.3170    -0.3600    -1.7620 os         1 71Q      -0.234000
     20 CL           3.1870     2.4220    -2.3680 cl         1 71Q      -0.197000
     21 C1           5.1180     0.7350    -1.5870 ca         1 71Q      -0.081000
     22 O1          -6.5330     0.8970     1.2560 o          1 71Q      -0.590100
     23 C2           5.6690    -0.2520    -0.7900 ca         1 71Q      -0.084000
     24 O2           0.8390    -0.3730     1.2760 o          1 71Q      -0.541100
     25 C11         -5.6860     0.3180     0.5850 c          1 71Q       0.548600
     26 F            4.9830    -1.8660     2.3430 f          1 71Q      -0.110333
     27 F1           5.2210    -3.0720     0.5800 f          1 71Q      -0.110333
     28 F2           6.8140    -1.7770     1.2190 f          1 71Q      -0.110333
     29 H7          -2.2390     2.3410     2.4490 h1         1 71Q       0.044450
     30 H6          -2.9500     2.5560     0.8460 h1         1 71Q       0.044450
     31 H5          -0.5260     2.1470    -0.2330 h1         1 71Q       0.052200
     32 H4          -0.2210     2.3480     1.4820 h1         1 71Q       0.052200
     33 H2           3.0640    -0.7150     1.3300 ha         1 71Q       0.166000
     34 H9          -4.6440     1.7400     2.3850 h1         1 71Q       0.067200
     35 H8          -3.6300     0.3880     2.8880 h1         1 71Q       0.067200
     36 H10         -8.2020    -0.8660    -0.3390 ha         1 71Q       0.157000
     37 H11         -8.0640    -1.6340    -2.9590 ha         1 71Q       0.147000
     38 H12         -5.5150    -1.0010    -3.7160 h4         1 71Q       0.054100
     39 H13         -3.1040    -1.3490     1.2630 h1         1 71Q       0.067200
     40 H14         -3.7650    -1.2980    -0.3580 h1         1 71Q       0.067200
     41 H15         -2.4230     0.7050    -0.8890 h1         1 71Q       0.044450
     42 H16         -1.4010    -0.6270    -0.3340 h1         1 71Q       0.044450
     43 H17          1.5750     2.0430    -0.5780 hn         1 71Q       0.162000
     44 H18          5.6890     1.1550    -2.4030 ha         1 71Q       0.137000
     45 H1           6.6720    -0.5980    -0.9980 ha         1 71Q       0.138000
@<TRIPOS>BOND
     1     1     5 1   
     2     1     6 1   
     3     1    16 1   
     4     2     4 1   
     5     2     9 ar  
     6     2    23 ar  
     7     3    10 1   
     8     3    15 1   
     9     3    25 1   
    10     4    26 1   
    11     4    27 1   
    12     4    28 1   
    13     5    10 1   
    14     5    29 1   
    15     5    30 1   
    16     6     7 1   
    17     6    31 1   
    18     6    32 1   
    19     7    17 1   
    20     7    24 2   
    21     8     9 ar  
    22     8    17 1   
    23     8    18 ar  
    24     9    33 1   
    25    10    34 1   
    26    10    35 1   
    27    11    12 2   
    28    11    19 1   
    29    11    25 1   
    30    12    13 1   
    31    12    36 1   
    32    13    14 2   
    33    13    37 1   
    34    14    19 1   
    35    14    38 1   
    36    15    16 1   
    37    15    39 1   
    38    15    40 1   
    39    16    41 1   
    40    16    42 1   
    41    17    43 1   
    42    18    20 1   
    43    18    21 ar  
    44    21    23 ar  
    45    21    44 1   
    46    22    25 2   
    47    23    45 1   
@<TRIPOS>SUBSTRUCTURE
     1 71Q         1 TEMP              0 ****  ****    0 ROOT
