@<TRIPOS>MOLECULE
71Q
   45    47     1     0     0
SMALL
No Charge or Current Charge


@<TRIPOS>ATOM
      1 N1          -1.5970     1.1750     1.6080 n3         1 71Q      -0.702600
      2 C3           4.7790    -0.9960    -0.0180 ca         1 71Q      -0.166300
      3 N2          -4.3190     0.8000     0.4550 n          1 71Q      -0.408800
      4 C4           5.7630    -1.8620     0.7790 c3         1 71Q       0.359300
      5 C9          -2.6940     2.0790     2.0270 c6         1 71Q       0.149300
      6 C8          -0.2470     1.7040     1.9960 c3         1 71Q       0.091800
      7 C7           0.9870     0.7870     1.7610 c          1 71Q       0.604100
      8 C6           2.7340     0.3700    -0.0820 ca         1 71Q      -0.007000
      9 C5           3.6610    -0.4250     0.6310 ca         1 71Q      -0.086000
     10 C10         -4.0940     1.4590     1.7850 c6         1 71Q       0.102000
     11 C12         -5.8910    -0.5010    -1.0610 cc         1 71Q       0.057500
     12 C13         -7.1350    -0.8930    -1.4890 cd         1 71Q      -0.112000
     13 C14         -6.9480    -1.7730    -2.5740 cd         1 71Q      -0.196000
     14 C15         -5.6010    -1.8940    -2.7690 cc         1 71Q       0.136900
     15 C16         -3.0950     0.2590    -0.2230 c6         1 71Q       0.102000
     16 C17         -1.7360     0.9130     0.1530 c6         1 71Q       0.149300
     17 N            1.5980     0.9740     0.5280 ns         1 71Q      -0.158000
     18 C            2.9450     0.5930    -1.4590 ca         1 71Q       0.080000
     19 O           -4.9340    -1.1210    -1.8450 os         1 71Q      -0.234000
     20 Cl           1.8200     1.5800    -2.3930 cl         1 71Q      -0.197000
     21 C1           4.0480     0.0220    -2.1130 ca         1 71Q      -0.081000
     22 O1          -6.5910     0.8680     0.7530 o          1 71Q      -0.590100
     23 C2           4.9590    -0.7720    -1.4000 ca         1 71Q      -0.084000
     24 O2           1.3650    -0.0290     2.5970 o          1 71Q      -0.541100
     25 C11         -5.6500     0.4270     0.1000 c          1 71Q       0.548600
     26 F            6.0360    -1.3300     1.9930 f          1 71Q      -0.110333
     27 F1           5.2650    -3.1000     0.9950 f          1 71Q      -0.110333
     28 F2           6.9520    -2.0200     0.1520 f          1 71Q      -0.110333
     29 H7          -2.6050     2.3240     3.0960 h1         1 71Q       0.044450
     30 H6          -2.6300     3.0290     1.4770 h1         1 71Q       0.044450
     31 H5          -0.0540     2.6510     1.4740 h1         1 71Q       0.052200
     32 H4          -0.2430     1.9370     3.0690 h1         1 71Q       0.052200
     33 H2           3.5320    -0.6020     1.6950 ha         1 71Q       0.166000
     34 H9          -4.8420     2.2500     1.9360 h1         1 71Q       0.067200
     35 H8          -4.2690     0.7050     2.5650 h1         1 71Q       0.067200
     36 H10         -8.0850    -0.5800    -1.0650 ha         1 71Q       0.157000
     37 H11         -7.7230    -2.2690    -3.1500 ha         1 71Q       0.147000
     38 H12         -5.0140    -2.4590    -3.4800 h4         1 71Q       0.054100
     39 H13         -3.0290    -0.8170    -0.0070 h1         1 71Q       0.067200
     40 H14         -3.1970     0.3780    -1.3090 h1         1 71Q       0.067200
     41 H15         -1.6400     1.8560    -0.4050 h1         1 71Q       0.044450
     42 H16         -0.9340     0.2510    -0.2050 h1         1 71Q       0.044450
     43 H17          1.1440     1.6630    -0.0570 hn         1 71Q       0.162000
     44 H18          4.1950     0.1940    -3.1760 ha         1 71Q       0.137000
     45 H1           5.8040    -1.2090    -1.9300 ha         1 71Q       0.138000
@<TRIPOS>BOND
     1     1     5 1   
     2     1     6 1   
     3     1    16 1   
     4     2     4 1   
     5     2     9 ar  
     6     2    23 ar  
     7     3    10 1   
     8     3    15 1   
     9     3    25 1   
    10     4    26 1   
    11     4    27 1   
    12     4    28 1   
    13     5    10 1   
    14     5    29 1   
    15     5    30 1   
    16     6     7 1   
    17     6    31 1   
    18     6    32 1   
    19     7    17 1   
    20     7    24 2   
    21     8     9 ar  
    22     8    17 1   
    23     8    18 ar  
    24     9    33 1   
    25    10    34 1   
    26    10    35 1   
    27    11    12 2   
    28    11    19 1   
    29    11    25 1   
    30    12    13 1   
    31    12    36 1   
    32    13    14 2   
    33    13    37 1   
    34    14    19 1   
    35    14    38 1   
    36    15    16 1   
    37    15    39 1   
    38    15    40 1   
    39    16    41 1   
    40    16    42 1   
    41    17    43 1   
    42    18    20 1   
    43    18    21 ar  
    44    21    23 ar  
    45    21    44 1   
    46    22    25 2   
    47    23    45 1   
@<TRIPOS>SUBSTRUCTURE
     1 71Q         1 TEMP              0 ****  ****    0 ROOT
