@<TRIPOS>MOLECULE
71S
   56    58     1     0     0
SMALL
abcg2


@<TRIPOS>ATOM
      1 N22          5.1530     3.2340    -1.0630 nv         1 71S      -1.054900
      2 C22          5.4090     1.9430    -0.6920 ca         1 71S       0.595900
      3 C23          6.7090     1.5390    -0.3510 ca         1 71S      -0.235000
      4 C24          6.9360     0.2120    -0.0410 ca         1 71S       0.001700
      5 C27          8.3010    -0.2760     0.3410 c3         1 71S      -0.052800
      6 C25          5.8520    -0.6670    -0.0750 ca         1 71S      -0.203000
      7 N21          4.3860     1.0950    -0.7230 nb         1 71S      -0.763000
      8 C26          4.6000    -0.1830    -0.4110 ca         1 71S       0.423300
      9 C28          3.4200    -1.1110    -0.5180 c3         1 71S      -0.108700
     10 C29          2.1260    -0.5810     0.1080 c3         1 71S      -0.008400
     11 C15          0.8900    -1.2590    -0.4260 ca         1 71S      -0.124300
     12 C14          0.8770    -2.5880    -0.8380 ca         1 71S       0.332900
     13 C12         -1.3510    -2.5440    -1.3020 ca         1 71S       0.331900
     14 C16         -0.3220    -0.5790    -0.4710 ca         1 71S      -0.073000
     15 C11         -1.4750    -1.2140    -0.9130 ca         1 71S      -0.128300
     16 C09         -2.8080    -0.5260    -0.9140 c3         1 71S      -0.023100
     17 C08         -3.5140    -0.6840     0.4400 c3         1 71S      -0.124700
     18 C06         -4.8410     0.0180     0.4650 ca         1 71S       0.396300
     19 N01         -4.8000     1.3520     0.4340 nb         1 71S      -0.754000
     20 C02         -5.9450     2.0250     0.4300 ca         1 71S       0.599900
     21 N02         -5.8680     3.3860     0.3500 nv         1 71S      -1.054900
     22 C03         -7.1950     1.3810     0.4640 ca         1 71S      -0.231000
     23 C04         -7.2390     0.0030     0.5000 ca         1 71S       0.001700
     24 C05         -6.0260    -0.6950     0.4960 ca         1 71S      -0.214000
     25 C07         -8.5420    -0.7350     0.5470 c3         1 71S      -0.053800
     26 C18          2.1150    -0.7050     1.6370 c3         1 71S       0.154800
     27 N11         -0.2100    -3.2170    -1.2700 nb         1 71S      -0.665000
     28 H221         5.7970     3.9410    -0.7500 hn         1 71S       0.463500
     29 H222         4.1870     3.5190    -1.0240 hn         1 71S       0.463500
     30 H23          7.5180     2.2600    -0.3380 ha         1 71S       0.117000
     31 H271         8.3080    -0.6320     1.3730 hc         1 71S       0.045033
     32 H272         8.6060    -1.1150    -0.2850 hc         1 71S       0.045033
     33 H273         9.0520     0.5060     0.2500 hc         1 71S       0.045033
     34 H25          5.9840    -1.7140     0.1700 ha         1 71S       0.121000
     35 H281         3.2430    -1.2850    -1.5850 hc         1 71S       0.053700
     36 H282         3.6850    -2.0810    -0.0910 hc         1 71S       0.053700
     37 H29          2.0480     0.4820    -0.1460 hc         1 71S       0.076700
     38 H181         1.1550    -0.3090     2.0010 h1         1 71S       0.028700
     39 H182         2.1250    -1.7690     1.8980 h1         1 71S       0.028700
     40 H14          1.7880    -3.1780    -0.8280 h4         1 71S       0.018100
     41 H16         -0.3640     0.4620    -0.1650 ha         1 71S       0.119000
     42 HA1          3.2730     0.9130     2.0360 hn         1 71S       0.395000
     43 HB2          3.2090    -0.1560     3.2490 hn         1 71S       0.395000
     44 H12         -2.2240    -3.0840    -1.6600 h4         1 71S       0.016100
     45 H091        -2.6830     0.5360    -1.1320 hc         1 71S       0.059700
     46 H092        -3.4400    -0.9440    -1.7010 hc         1 71S       0.059700
     47 H081        -3.6510    -1.7460     0.6550 hc         1 71S       0.055200
     48 H082        -2.8740    -0.2750     1.2260 hc         1 71S       0.055200
     49 H05         -6.0100    -1.7770     0.5220 ha         1 71S       0.122000
     50 H021        -4.9840     3.7950     0.6050 hn         1 71S       0.468000
     51 H022        -6.6670     3.9150     0.6560 hn         1 71S       0.468000
     52 H03         -8.1070     1.9670     0.4650 ha         1 71S       0.119000
     53 H071        -8.6320    -1.4170    -0.2990 hc         1 71S       0.046700
     54 H072        -8.6110    -1.3400     1.4520 hc         1 71S       0.046700
     55 H073        -9.3930    -0.0560     0.5280 hc         1 71S       0.046700
     56 N18          3.2730    -0.0770     2.2420 n8         1 71S      -0.998200
@<TRIPOS>BOND
     1     1     2 1   
     2     1    28 1   
     3     1    29 1   
     4     2     3 ar  
     5     2     7 ar  
     6     3     4 ar  
     7     3    30 1   
     8     4     5 1   
     9     4     6 ar  
    10     5    31 1   
    11     5    32 1   
    12     5    33 1   
    13     6     8 ar  
    14     6    34 1   
    15     7     8 ar  
    16     8     9 1   
    17     9    10 1   
    18     9    35 1   
    19     9    36 1   
    20    10    11 1   
    21    10    26 1   
    22    10    37 1   
    23    11    12 ar  
    24    11    14 ar  
    25    12    27 ar  
    26    12    40 1   
    27    13    15 ar  
    28    13    27 ar  
    29    13    44 1   
    30    14    15 ar  
    31    14    41 1   
    32    15    16 1   
    33    16    17 1   
    34    16    45 1   
    35    16    46 1   
    36    17    18 1   
    37    17    47 1   
    38    17    48 1   
    39    18    19 ar  
    40    18    24 ar  
    41    19    20 ar  
    42    20    21 1   
    43    20    22 ar  
    44    21    50 1   
    45    21    51 1   
    46    22    23 ar  
    47    22    52 1   
    48    23    24 ar  
    49    23    25 1   
    50    24    49 1   
    51    25    53 1   
    52    25    54 1   
    53    25    55 1   
    54    26    38 1   
    55    26    39 1   
    56    26    56 1   
    57    42    56 1   
    58    43    56 1   
@<TRIPOS>SUBSTRUCTURE
     1 71S         1 TEMP              0 ****  ****    0 ROOT
