@<TRIPOS>MOLECULE
71S
   56    58     1     0     0
SMALL
No Charge or Current Charge


@<TRIPOS>ATOM
      1 N22          4.7460     3.4370    -1.0870 nv         1 71S      -1.054900
      2 C22          5.1320     2.1880    -0.8250 ca         1 71S       0.595900
      3 C23          6.4480     1.8360    -0.5180 ca         1 71S      -0.235000
      4 C24          6.7350     0.4860    -0.2640 ca         1 71S       0.001700
      5 C27          8.1440     0.0270     0.0730 c3         1 71S      -0.052800
      6 C25          5.6670    -0.4230    -0.3280 ca         1 71S      -0.203000
      7 N21          4.1110     1.3480    -0.8920 nb         1 71S      -0.763000
      8 C26          4.3720     0.0450    -0.6290 ca         1 71S       0.423300
      9 C28          3.1970    -0.9200    -0.7520 c3         1 71S      -0.108700
     10 C29          2.1820    -0.8680     0.4270 c3         1 71S      -0.008400
     11 C15          0.8830    -1.5740     0.0320 ca         1 71S      -0.124300
     12 C14          0.8470    -2.9690    -0.1810 ca         1 71S       0.332900
     13 C12         -1.4120    -2.9270    -0.6860 ca         1 71S       0.331900
     14 C16         -0.3100    -0.8430    -0.1340 ca         1 71S      -0.073000
     15 C11         -1.4810    -1.5320    -0.4990 ca         1 71S      -0.128300
     16 C09         -2.7940    -0.7830    -0.6860 c3         1 71S      -0.023100
     17 C08         -3.4650    -0.4370     0.6610 c3         1 71S      -0.124700
     18 C06         -4.7910     0.2860     0.4810 ca         1 71S       0.396300
     19 N01         -4.7680     1.6330     0.5960 nb         1 71S      -0.754000
     20 C02         -5.9180     2.2680     0.4320 ca         1 71S       0.599900
     21 N02         -5.7660     3.5850     0.5790 nv         1 71S      -1.054900
     22 C03         -7.1440     1.6570     0.1580 ca         1 71S      -0.231000
     23 C04         -7.1790     0.2600     0.0330 ca         1 71S       0.001700
     24 C05         -5.9690    -0.4330     0.2020 ca         1 71S      -0.214000
     25 C07         -8.4750    -0.4750    -0.2650 c3         1 71S      -0.053800
     26 C18          2.7320    -1.4620     1.7550 c3         1 71S       0.154800
     27 N11         -0.2740    -3.6410    -0.5320 nb         1 71S      -0.665000
     28 H221         5.3330     4.1890    -0.7440 hn         1 71S       0.463500
     29 H222         3.7460     3.5930    -1.0680 hn         1 71S       0.463500
     30 H23          7.2270     2.5900    -0.4830 ha         1 71S       0.117000
     31 H271         8.3010     0.0140     1.1580 hc         1 71S       0.045033
     32 H272         8.3340    -0.9840    -0.3070 hc         1 71S       0.045033
     33 H273         8.8970     0.6910    -0.3680 hc         1 71S       0.045033
     34 H25          5.8310    -1.4800    -0.1380 ha         1 71S       0.121000
     35 H281         2.6600    -0.6960    -1.6820 hc         1 71S       0.053700
     36 H282         3.5650    -1.9460    -0.8660 hc         1 71S       0.053700
     37 H29          1.9520     0.1890     0.6150 hc         1 71S       0.076700
     38 H181         1.9050    -1.5540     2.4730 h1         1 71S       0.028700
     39 H182         3.1370    -2.4670     1.5750 h1         1 71S       0.028700
     40 H14          1.7470    -3.5720    -0.0690 h4         1 71S       0.018100
     41 H16         -0.3290     0.2340     0.0160 ha         1 71S       0.119000
     42 HA1          3.3840     0.2760     2.6380 hn         1 71S       0.395000
     43 HB2          4.0320    -1.0480     3.2930 hn         1 71S       0.395000
     44 H12         -2.2990    -3.4950    -0.9660 h4         1 71S       0.016100
     45 H091        -2.6190     0.1440    -1.2470 hc         1 71S       0.059700
     46 H092        -3.4890    -1.3790    -1.2920 hc         1 71S       0.059700
     47 H081        -3.6270    -1.3630     1.2270 hc         1 71S       0.055200
     48 H082        -2.7760     0.1700     1.2610 hc         1 71S       0.055200
     49 H05         -5.9370    -1.5160     0.1180 ha         1 71S       0.122000
     50 H021        -4.8910     3.8640     1.0040 hn         1 71S       0.468000
     51 H022        -6.5860     4.1290     0.8260 hn         1 71S       0.468000
     52 H03         -8.0430     2.2530     0.0420 ha         1 71S       0.119000
     53 H071        -8.2920    -1.3780    -0.8600 hc         1 71S       0.046700
     54 H072        -8.9730    -0.7800     0.6630 hc         1 71S       0.046700
     55 H073        -9.1720     0.1560    -0.8280 hc         1 71S       0.046700
     56 N18          3.7810    -0.6360     2.3860 n8         1 71S      -0.998200
@<TRIPOS>BOND
     1     1     2 1   
     2     1    28 1   
     3     1    29 1   
     4     2     3 ar  
     5     2     7 ar  
     6     3     4 ar  
     7     3    30 1   
     8     4     5 1   
     9     4     6 ar  
    10     5    31 1   
    11     5    32 1   
    12     5    33 1   
    13     6     8 ar  
    14     6    34 1   
    15     7     8 ar  
    16     8     9 1   
    17     9    10 1   
    18     9    35 1   
    19     9    36 1   
    20    10    11 1   
    21    10    26 1   
    22    10    37 1   
    23    11    12 ar  
    24    11    14 ar  
    25    12    27 ar  
    26    12    40 1   
    27    13    15 ar  
    28    13    27 ar  
    29    13    44 1   
    30    14    15 ar  
    31    14    41 1   
    32    15    16 1   
    33    16    17 1   
    34    16    45 1   
    35    16    46 1   
    36    17    18 1   
    37    17    47 1   
    38    17    48 1   
    39    18    19 ar  
    40    18    24 ar  
    41    19    20 ar  
    42    20    21 1   
    43    20    22 ar  
    44    21    50 1   
    45    21    51 1   
    46    22    23 ar  
    47    22    52 1   
    48    23    24 ar  
    49    23    25 1   
    50    24    49 1   
    51    25    53 1   
    52    25    54 1   
    53    25    55 1   
    54    26    38 1   
    55    26    39 1   
    56    26    56 1   
    57    42    56 1   
    58    43    56 1   
@<TRIPOS>SUBSTRUCTURE
     1 71S         1 TEMP              0 ****  ****    0 ROOT
