@<TRIPOS>MOLECULE
71U
   62    64     1     0     0
SMALL
No Charge or Current Charge


@<TRIPOS>ATOM
      1 C4          -7.9850    -0.9030    -0.2040 c6         1 71U      -0.073400
      2 C5          -8.7270    -0.2350     0.9780 c6         1 71U      -0.075400
      3 C6          -8.3920     1.2730     1.0610 c6         1 71U      -0.073400
      4 N1          -1.6420    -0.5810    -0.0660 n          1 71U      -0.401800
      5 C7          -6.8630     1.5010     1.1580 c6         1 71U      -0.072400
      6 C8          -2.1530     0.5950    -0.6660 c          1 71U       0.619100
      7 C9          -2.4630    -1.7590     0.2920 c5         1 71U       0.108000
      8 C10         -1.5570    -2.4550     1.3360 c5         1 71U      -0.094400
      9 C11         -0.1530    -2.2390     0.7260 c5         1 71U      -0.086400
     10 C12         -0.2030    -0.7390     0.3000 c5         1 71U       0.030700
     11 N3           5.2420    -2.9440    -1.6260 n8         1 71U      -0.991200
     12 C13          0.8200    -0.5310    -0.8660 c          1 71U       0.602100
     13 C14          3.2630    -0.0360    -1.1390 c3         1 71U       0.141300
     14 C15          4.5110     0.0030    -0.2630 ca         1 71U      -0.073300
     15 O1          -1.4180     1.5630    -0.8480 o          1 71U      -0.603100
     16 C           -3.6760     0.6360    -1.0920 c3         1 71U       0.096500
     17 C1          -4.5670     1.0970     0.0960 c3         1 71U      -0.116400
     18 C2          -6.1040     0.8430    -0.0310 c6         1 71U      -0.062700
     19 C3          -6.4560    -0.6730    -0.1130 c6         1 71U      -0.072400
     20 N           -3.9930     1.4550    -2.3120 n8         1 71U      -0.979200
     21 O            0.6080    -0.5960    -2.0710 o          1 71U      -0.586100
     22 C20          5.1900    -1.1820     0.1280 ca         1 71U      -0.065300
     23 C21          4.7120    -2.5700    -0.3010 c3         1 71U       0.193100
     24 C19          6.3380    -1.0840     0.9420 ca         1 71U      -0.108000
     25 C18          6.8100     0.1690     1.3680 ca         1 71U      -0.099000
     26 C17          6.1360     1.3360     0.9840 ca         1 71U       0.119000
     27 Cl           6.7220     2.9050     1.5190 cl         1 71U      -0.203000
     28 C16          4.9930     1.2540     0.1740 ca         1 71U      -0.097000
     29 H1          -8.2000    -1.9800    -0.2160 hc         1 71U       0.040200
     30 H2          -8.3630    -0.4990    -1.1530 hc         1 71U       0.040200
     31 H3          -9.8110    -0.3710     0.8640 hc         1 71U       0.038700
     32 H4          -8.4470    -0.7300     1.9190 hc         1 71U       0.038700
     33 H5          -8.7880     1.7900     0.1760 hc         1 71U       0.040200
     34 H6          -8.8910     1.7180     1.9330 hc         1 71U       0.040200
     35 H7          -6.6580     2.5800     1.1820 hc         1 71U       0.038950
     36 H8          -6.4920     1.0930     2.1090 hc         1 71U       0.038950
     37 H9           2.1430    -0.2250     0.6720 hn         1 71U       0.313500
     38 H10         -3.4370    -1.4950     0.7210 h1         1 71U       0.052700
     39 H11         -2.6290    -2.3960    -0.5880 h1         1 71U       0.052700
     40 H12         -1.6420    -1.9710     2.3170 hc         1 71U       0.055200
     41 H13         -1.8070    -3.5130     1.4680 hc         1 71U       0.055200
     42 H14          0.6550    -2.4470     1.4380 hc         1 71U       0.060700
     43 H15         -0.0020    -2.8990    -0.1370 hc         1 71U       0.060700
     44 H16          0.0500    -0.0720     1.1350 h1         1 71U       0.062700
     45 H17          6.2670    -2.9730    -1.5730 hn         1 71U       0.397500
     46 H18          4.9800    -3.9160    -1.8270 hn         1 71U       0.397500
     47 H20          3.3520    -0.8290    -1.8940 h1         1 71U       0.075200
     48 H21          3.1560     0.9160    -1.6770 h1         1 71U       0.075200
     49 H22         -3.9420    -0.3980    -1.3410 h1         1 71U       0.069700
     50 H23         -4.2070     0.6100     1.0110 hc         1 71U       0.050700
     51 H24         -4.3850     2.1680     0.2570 hc         1 71U       0.050700
     52 H25         -6.4390     1.3310    -0.9570 hc         1 71U       0.043700
     53 H26         -6.0580    -1.1970     0.7680 hc         1 71U       0.038950
     54 H27         -5.9810    -1.1330    -0.9890 hc         1 71U       0.038950
     55 H28         -5.0110     1.5540    -2.3950 hn         1 71U       0.405000
     56 H29         -3.6660     2.4170    -2.1590 hn         1 71U       0.405000
     57 H31          3.6140    -2.6070    -0.3300 h1         1 71U       0.036700
     58 H32          5.0470    -3.3160     0.4330 h1         1 71U       0.036700
     59 H33          6.8670    -1.9840     1.2480 ha         1 71U       0.113000
     60 H34          7.6950     0.2340     1.9960 ha         1 71U       0.130000
     61 H35          4.4800     2.1680    -0.1140 ha         1 71U       0.134000
     62 N2           2.0620    -0.2590    -0.3370 ns         1 71U      -0.500900
@<TRIPOS>BOND
     1     1     2 1   
     2     1    19 1   
     3     1    29 1   
     4     1    30 1   
     5     2     3 1   
     6     2    31 1   
     7     2    32 1   
     8     3     5 1   
     9     3    33 1   
    10     3    34 1   
    11     4     6 1   
    12     4     7 1   
    13     4    10 1   
    14     5    18 1   
    15     5    35 1   
    16     5    36 1   
    17     6    15 2   
    18     6    16 1   
    19     7     8 1   
    20     7    38 1   
    21     7    39 1   
    22     8     9 1   
    23     8    40 1   
    24     8    41 1   
    25     9    10 1   
    26     9    42 1   
    27     9    43 1   
    28    10    12 1   
    29    10    44 1   
    30    11    23 1   
    31    11    45 1   
    32    11    46 1   
    33    12    21 2   
    34    12    62 1   
    35    13    14 1   
    36    13    47 1   
    37    13    48 1   
    38    13    62 1   
    39    14    22 ar  
    40    14    28 ar  
    41    16    17 1   
    42    16    20 1   
    43    16    49 1   
    44    17    18 1   
    45    17    50 1   
    46    17    51 1   
    47    18    19 1   
    48    18    52 1   
    49    19    53 1   
    50    19    54 1   
    51    20    55 1   
    52    20    56 1   
    53    22    23 1   
    54    22    24 ar  
    55    23    57 1   
    56    23    58 1   
    57    24    25 ar  
    58    24    59 1   
    59    25    26 ar  
    60    25    60 1   
    61    26    27 1   
    62    26    28 ar  
    63    28    61 1   
    64    37    62 1   
@<TRIPOS>SUBSTRUCTURE
     1 71U         1 TEMP              0 ****  ****    0 ROOT
