@<TRIPOS>MOLECULE
71U
   62    64     1     0     0
SMALL
abcg2


@<TRIPOS>ATOM
      1 C4          -7.9900    -0.1910    -0.6390 c6         1 71U      -0.073400
      2 C5          -8.6720     0.3350     0.6200 c6         1 71U      -0.075400
      3 C6          -7.9820     1.5940     1.1330 c6         1 71U      -0.073400
      4 N1          -1.6050    -1.0630     0.0690 n          1 71U      -0.401800
      5 C7          -6.4930     1.3510     1.3600 c6         1 71U      -0.072400
      6 C8          -2.0320     0.1000    -0.4450 c          1 71U       0.619100
      7 C9          -2.3620    -2.2970     0.2420 c5         1 71U       0.108000
      8 C10         -1.5560    -3.0330     1.3020 c5         1 71U      -0.094400
      9 C11         -0.1200    -2.6570     0.9530 c5         1 71U      -0.086400
     10 C12         -0.2300    -1.1880     0.5170 c5         1 71U       0.030700
     11 N3           4.7550    -2.6260    -1.5380 n8         1 71U      -0.991200
     12 C13          0.7480    -0.8820    -0.6090 c          1 71U       0.602100
     13 C14          2.9530     0.0560    -1.1280 c3         1 71U       0.141300
     14 C15          4.2420     0.2370    -0.3710 ca         1 71U      -0.073300
     15 O1          -1.2850     1.0690    -0.5240 o          1 71U      -0.603100
     16 C           -3.4890     0.2000    -0.8710 c3         1 71U       0.096500
     17 C1          -4.3120     0.6220     0.3610 c3         1 71U      -0.116400
     18 C2          -5.8000     0.8370     0.0960 c6         1 71U      -0.062700
     19 C3          -6.5000    -0.4250    -0.4100 c6         1 71U      -0.072400
     20 N           -3.5690     1.0990    -2.0070 n8         1 71U      -0.979200
     21 O            0.5420    -1.2490    -1.7540 o          1 71U      -0.586100
     22 C20          4.9590    -0.8600     0.1240 ca         1 71U      -0.065300
     23 C21          4.5260    -2.2790    -0.1410 c3         1 71U       0.193100
     24 C19          6.1300    -0.6250     0.8350 ca         1 71U      -0.108000
     25 C18          6.6010     0.6600     1.0690 ca         1 71U      -0.099000
     26 C17          5.8770     1.7280     0.5740 ca         1 71U       0.119000
     27 CL           6.4350     3.3480     0.8470 cl         1 71U      -0.203000
     28 C16          4.7040     1.5260    -0.1390 ca         1 71U      -0.097000
     29 H1          -8.4690    -1.1150    -0.9710 hc         1 71U       0.040200
     30 H2          -8.1180     0.5340    -1.4500 hc         1 71U       0.040200
     31 H3          -9.7290     0.5340     0.4240 hc         1 71U       0.038700
     32 H4          -8.6380    -0.4360     1.3970 hc         1 71U       0.038700
     33 H5          -8.1090     2.4020     0.4030 hc         1 71U       0.040200
     34 H6          -8.4530     1.9350     2.0580 hc         1 71U       0.040200
     35 H7          -6.0060     2.2700     1.6980 hc         1 71U       0.038950
     36 H8          -6.3640     0.6160     2.1630 hc         1 71U       0.038950
     37 H9           1.9210     0.1040     0.7190 hn         1 71U       0.313500
     38 H10         -3.3850    -2.1030     0.5620 h1         1 71U       0.052700
     39 H11         -2.3980    -2.8660    -0.6910 h1         1 71U       0.052700
     40 H12         -1.8190    -2.6610     2.2950 hc         1 71U       0.055200
     41 H13         -1.7320    -4.1070     1.2850 hc         1 71U       0.055200
     42 H14          0.5780    -2.7790     1.7800 hc         1 71U       0.060700
     43 H15          0.2310    -3.2740     0.1230 hc         1 71U       0.060700
     44 H16         -0.0510    -0.5220     1.3680 h1         1 71U       0.062700
     45 H17          5.7510    -2.6880    -1.7090 hn         1 71U       0.397500
     46 H18          4.3830    -3.5500    -1.7180 hn         1 71U       0.397500
     47 H20          3.0590    -0.7530    -1.8510 h1         1 71U       0.075200
     48 H21          2.7230     0.9680    -1.6850 h1         1 71U       0.075200
     49 H22         -3.8320    -0.7790    -1.2160 h1         1 71U       0.069700
     50 H23         -4.2020    -0.1270     1.1540 hc         1 71U       0.050700
     51 H24         -3.8840     1.5510     0.7560 hc         1 71U       0.050700
     52 H25         -5.9100     1.6170    -0.6690 hc         1 71U       0.043700
     53 H26         -6.3640    -1.2260     0.3280 hc         1 71U       0.038950
     54 H27         -6.0400    -0.7770    -1.3380 hc         1 71U       0.038950
     55 H28         -4.5270     1.1450    -2.3320 hn         1 71U       0.405000
     56 H29         -3.3200     2.0380    -1.7220 hn         1 71U       0.405000
     57 H31          3.4590    -2.3870     0.0650 h1         1 71U       0.036700
     58 H32          5.0410    -2.9390     0.5680 h1         1 71U       0.036700
     59 H33          6.6960    -1.4660     1.2180 ha         1 71U       0.113000
     60 H34          7.5150     0.8180     1.6250 ha         1 71U       0.130000
     61 H35          4.1470     2.3730    -0.5190 ha         1 71U       0.134000
     62 N2           1.8730    -0.2680    -0.2170 ns         1 71U      -0.500900
@<TRIPOS>BOND
     1     1     2 1   
     2     1    19 1   
     3     1    29 1   
     4     1    30 1   
     5     2     3 1   
     6     2    31 1   
     7     2    32 1   
     8     3     5 1   
     9     3    33 1   
    10     3    34 1   
    11     4     6 1   
    12     4     7 1   
    13     4    10 1   
    14     5    18 1   
    15     5    35 1   
    16     5    36 1   
    17     6    15 2   
    18     6    16 1   
    19     7     8 1   
    20     7    38 1   
    21     7    39 1   
    22     8     9 1   
    23     8    40 1   
    24     8    41 1   
    25     9    10 1   
    26     9    42 1   
    27     9    43 1   
    28    10    12 1   
    29    10    44 1   
    30    11    23 1   
    31    11    45 1   
    32    11    46 1   
    33    12    21 2   
    34    12    62 1   
    35    13    14 1   
    36    13    47 1   
    37    13    48 1   
    38    13    62 1   
    39    14    22 ar  
    40    14    28 ar  
    41    16    17 1   
    42    16    20 1   
    43    16    49 1   
    44    17    18 1   
    45    17    50 1   
    46    17    51 1   
    47    18    19 1   
    48    18    52 1   
    49    19    53 1   
    50    19    54 1   
    51    20    55 1   
    52    20    56 1   
    53    22    23 1   
    54    22    24 ar  
    55    23    57 1   
    56    23    58 1   
    57    24    25 ar  
    58    24    59 1   
    59    25    26 ar  
    60    25    60 1   
    61    26    27 1   
    62    26    28 ar  
    63    28    61 1   
    64    37    62 1   
@<TRIPOS>SUBSTRUCTURE
     1 71U         1 TEMP              0 ****  ****    0 ROOT
