@<TRIPOS>MOLECULE
71W
   63    66     1     0     0
SMALL
bcc


@<TRIPOS>ATOM
      1 O01         -0.7570     0.8470     3.1260 oh         1 71W      -0.587800
      2 C02          0.6350     1.0820     3.1460 c5         1 71W       0.145100
      3 C03          1.4020    -0.1170     3.6980 c5         1 71W      -0.117400
      4 C04          1.2990    -1.1390     2.5720 c5         1 71W      -0.062400
      5 C05          1.4520    -0.3050     1.2790 c5         1 71W       0.036400
      6 C06          2.8410    -0.3470     0.6520 ce         1 71W      -0.044400
      7 C07          3.0800     0.5640    -0.5020 ca         1 71W      -0.056800
      8 C08          3.9400     1.6530    -0.3470 ca         1 71W      -0.117500
      9 C09          4.1930     2.5210    -1.4010 ca         1 71W      -0.132500
     10 C10          3.5910     2.3120    -2.6340 ca         1 71W      -0.128000
     11 C11          2.7400     1.2280    -2.8030 ca         1 71W      -0.132500
     12 C12          2.4840     0.3640    -1.7470 ca         1 71W      -0.117500
     13 C13          3.8720    -1.0490     1.1210 c2         1 71W      -0.216000
     14 C14          1.1590     1.1730     1.7120 c5         1 71W      -0.059700
     15 C15          0.2020     1.7390     0.6640 c5         1 71W      -0.032200
     16 C16         -0.3450     0.5290    -0.0330 c2         1 71W      -0.077400
     17 C17         -1.4810     0.6800    -0.9910 c3         1 71W      -0.032200
     18 C18         -2.8180     0.9590    -0.2980 c3         1 71W      -0.072400
     19 C19         -3.9820     1.0190    -1.2770 c3         1 71W      -0.077400
     20 C20         -5.3210     1.2710    -0.5950 c3         1 71W      -0.075400
     21 C21         -6.4960     1.3050    -1.5640 c3         1 71W      -0.075400
     22 C22         -7.8260     1.5620    -0.8700 c3         1 71W      -0.088100
     23 C23          0.3280    -0.5830     0.2920 ce         1 71W      -0.069400
     24 C24          0.0350    -1.9500    -0.1690 ca         1 71W      -0.030800
     25 C25         -1.2830    -2.4150    -0.2400 ca         1 71W      -0.123000
     26 C26         -1.5720    -3.6990    -0.6780 ca         1 71W      -0.133000
     27 C27         -0.5470    -4.5620    -1.0420 ca         1 71W      -0.130000
     28 C28          0.7680    -4.1280    -0.9530 ca         1 71W      -0.133000
     29 C29          1.0550    -2.8420    -0.5170 ca         1 71W      -0.123000
     30 H011        -1.0510     0.7400     4.0360 ho         1 71W       0.398000
     31 H021         0.8630     2.0020     3.7010 h1         1 71W       0.034700
     32 H031         2.4450     0.1700     3.8610 hc         1 71W       0.046700
     33 H032         1.0120    -0.4740     4.6540 hc         1 71W       0.046700
     34 H041         2.0110    -1.9570     2.6670 hc         1 71W       0.055700
     35 H042         0.3090    -1.5970     2.5850 hc         1 71W       0.055700
     36 H081         4.4100     1.8230     0.6140 ha         1 71W       0.135000
     37 H091         4.8620     3.3600    -1.2560 ha         1 71W       0.129500
     38 H101         3.7870     2.9860    -3.4580 ha         1 71W       0.129000
     39 H111         2.2740     1.0500    -3.7640 ha         1 71W       0.129500
     40 H121         1.8230    -0.4770    -1.9050 ha         1 71W       0.135000
     41 H132         3.7970    -1.7140     1.9710 ha         1 71W       0.117500
     42 H131         4.8450    -0.9890     0.6510 ha         1 71W       0.117500
     43 H141         2.0820     1.7560     1.7490 hc         1 71W       0.061700
     44 H151        -0.5880     2.3560     1.0990 hc         1 71W       0.059200
     45 H152         0.7310     2.3750    -0.0550 hc         1 71W       0.059200
     46 H172        -1.2600     1.5140    -1.6670 hc         1 71W       0.047700
     47 H171        -1.5760    -0.2080    -1.6210 hc         1 71W       0.047700
     48 H182        -3.0080     0.1820     0.4490 hc         1 71W       0.044200
     49 H181        -2.7580     1.8990     0.2590 hc         1 71W       0.044200
     50 H192        -3.7980     1.8040    -2.0180 hc         1 71W       0.036200
     51 H191        -4.0310     0.0780    -1.8370 hc         1 71W       0.036200
     52 H201        -5.4950     0.4930     0.1570 hc         1 71W       0.037700
     53 H202        -5.2780     2.2190    -0.0450 hc         1 71W       0.037700
     54 H212        -6.3220     2.0790    -2.3180 hc         1 71W       0.036200
     55 H211        -6.5420     0.3560    -2.1090 hc         1 71W       0.036200
     56 H221        -8.6560     1.5700    -1.5770 hc         1 71W       0.031033
     57 H223        -8.0360     0.7930    -0.1230 hc         1 71W       0.031033
     58 H222        -7.8220     2.5250    -0.3560 hc         1 71W       0.031033
     59 H251        -2.0940    -1.7700     0.0720 ha         1 71W       0.136500
     60 H261        -2.6030    -4.0280    -0.7250 ha         1 71W       0.128000
     61 H271        -0.7720    -5.5650    -1.3830 ha         1 71W       0.128000
     62 H281         1.5790    -4.7930    -1.2230 ha         1 71W       0.128000
     63 H291         2.0890    -2.5310    -0.4540 ha         1 71W       0.136500
@<TRIPOS>BOND
     1     1     2 1   
     2     1    30 1   
     3     2     3 1   
     4     2    14 1   
     5     2    31 1   
     6     3     4 1   
     7     3    32 1   
     8     3    33 1   
     9     4     5 1   
    10     4    34 1   
    11     4    35 1   
    12     5     6 1   
    13     5    14 1   
    14     5    23 1   
    15     6     7 1   
    16     6    13 2   
    17     7     8 ar  
    18     7    12 ar  
    19     8     9 ar  
    20     8    36 1   
    21     9    10 ar  
    22     9    37 1   
    23    10    11 ar  
    24    10    38 1   
    25    11    12 ar  
    26    11    39 1   
    27    12    40 1   
    28    13    41 1   
    29    13    42 1   
    30    14    15 1   
    31    14    43 1   
    32    15    16 1   
    33    15    44 1   
    34    15    45 1   
    35    16    17 1   
    36    16    23 2   
    37    17    18 1   
    38    17    46 1   
    39    17    47 1   
    40    18    19 1   
    41    18    48 1   
    42    18    49 1   
    43    19    20 1   
    44    19    50 1   
    45    19    51 1   
    46    20    21 1   
    47    20    52 1   
    48    20    53 1   
    49    21    22 1   
    50    21    54 1   
    51    21    55 1   
    52    22    56 1   
    53    22    57 1   
    54    22    58 1   
    55    23    24 1   
    56    24    25 ar  
    57    24    29 ar  
    58    25    26 ar  
    59    25    59 1   
    60    26    27 ar  
    61    26    60 1   
    62    27    28 ar  
    63    27    61 1   
    64    28    29 ar  
    65    28    62 1   
    66    29    63 1   
@<TRIPOS>SUBSTRUCTURE
     1 71W         1 TEMP              0 ****  ****    0 ROOT
