@<TRIPOS>MOLECULE
71W
   63    66     1     0     0
SMALL
No Charge or Current Charge


@<TRIPOS>ATOM
      1 O01         -0.8500     1.1450     2.8390 oh         1 71W      -0.650000
      2 C02          0.5480     1.4540     2.7810 c5         1 71W       0.168300
      3 C03          1.3960     0.3720     3.4980 c5         1 71W      -0.117400
      4 C04          1.2790    -0.8330     2.5190 c5         1 71W      -0.062400
      5 C05          1.4310    -0.1520     1.1050 c5         1 71W       0.036400
      6 C06          2.8180    -0.4340     0.4640 ce         1 71W      -0.044400
      7 C07          3.4730     0.6210    -0.3590 ca         1 71W      -0.056800
      8 C08          4.6440     1.2510     0.1010 ca         1 71W      -0.099500
      9 C09          5.2640     2.2470    -0.6740 ca         1 71W      -0.114500
     10 C10          4.7180     2.6130    -1.9170 ca         1 71W      -0.110000
     11 C11          3.5540     1.9790    -2.3850 ca         1 71W      -0.114500
     12 C12          2.9360     0.9830    -1.6090 ca         1 71W      -0.099500
     13 C13          3.4590    -1.6250     0.5060 c2         1 71W      -0.316000
     14 C14          1.2060     1.3870     1.3560 c5         1 71W      -0.059700
     15 C15          0.1780     1.8380     0.2520 c5         1 71W      -0.032200
     16 C16         -0.4580     0.5570    -0.2680 c2         1 71W      -0.077400
     17 C17         -1.6650     0.5460    -1.1870 c3         1 71W      -0.032200
     18 C18         -2.9840     0.7890    -0.4240 c3         1 71W      -0.072400
     19 C19         -4.2290     0.7400    -1.3360 c3         1 71W      -0.077400
     20 C20         -5.5490     0.9800    -0.5700 c3         1 71W      -0.075400
     21 C21         -6.7950     0.9300    -1.4810 c3         1 71W      -0.075400
     22 C22         -8.1110     1.1690    -0.7160 c3         1 71W      -0.088100
     23 C23          0.2470    -0.4840     0.2120 ce         1 71W      -0.069400
     24 C24         -0.1080    -1.8910    -0.1200 ca         1 71W      -0.030800
     25 C25         -1.2230    -2.5000     0.4860 ca         1 71W      -0.105000
     26 C26         -1.5680    -3.8250     0.1690 ca         1 71W      -0.115000
     27 C27         -0.8000    -4.5470    -0.7600 ca         1 71W      -0.112000
     28 C28          0.3110    -3.9420    -1.3720 ca         1 71W      -0.115000
     29 C29          0.6540    -2.6170    -1.0540 ca         1 71W      -0.105000
     30 H011        -1.0960     1.1320     3.7880 ho         1 71W       0.437000
     31 H021         0.7170     2.4420     3.2320 h1         1 71W       0.034700
     32 H031         2.4380     0.6930     3.6130 hc         1 71W       0.046700
     33 H032         1.0200     0.1340     4.4990 hc         1 71W       0.046700
     34 H041         2.0330    -1.5930     2.7430 hc         1 71W       0.055700
     35 H042         0.3070    -1.3260     2.6320 hc         1 71W       0.055700
     36 H081         5.0680     0.9720     1.0630 ha         1 71W       0.117000
     37 H091         6.1670     2.7350    -0.3120 ha         1 71W       0.111500
     38 H101         5.1970     3.3830    -2.5170 ha         1 71W       0.111000
     39 H111         3.1320     2.2580    -3.3480 ha         1 71W       0.111500
     40 H121         2.0370     0.4930    -1.9770 ha         1 71W       0.117000
     41 H132         3.0480    -2.4950     1.0140 ha         1 71W       0.167500
     42 H131         4.4130    -1.7730     0.0010 ha         1 71W       0.167500
     43 H141         2.1240     1.9830     1.3470 hc         1 71W       0.061700
     44 H151        -0.5690     2.5450     0.6310 hc         1 71W       0.059200
     45 H152         0.6900     2.3540    -0.5670 hc         1 71W       0.059200
     46 H172        -1.5460     1.3150    -1.9600 hc         1 71W       0.047700
     47 H171        -1.7310    -0.4120    -1.7170 hc         1 71W       0.047700
     48 H182        -3.0860     0.0350     0.3650 hc         1 71W       0.044200
     49 H181        -2.9380     1.7660     0.0730 hc         1 71W       0.044200
     50 H192        -4.1280     1.4960    -2.1250 hc         1 71W       0.036200
     51 H191        -4.2740    -0.2380    -1.8320 hc         1 71W       0.036200
     52 H201        -5.6490     0.2250     0.2200 hc         1 71W       0.037700
     53 H202        -5.5040     1.9580    -0.0740 hc         1 71W       0.037700
     54 H212        -6.6990     1.6850    -2.2700 hc         1 71W       0.036200
     55 H211        -6.8430    -0.0480    -1.9760 hc         1 71W       0.036200
     56 H221        -8.9650     1.1240    -1.4030 hc         1 71W       0.031033
     57 H223        -8.2530     0.4070     0.0590 hc         1 71W       0.031033
     58 H222        -8.1080     2.1550    -0.2370 hc         1 71W       0.031033
     59 H251        -1.8180    -1.9430     1.2060 ha         1 71W       0.118500
     60 H261        -2.4300    -4.2900     0.6420 ha         1 71W       0.110000
     61 H271        -1.0670    -5.5730    -1.0070 ha         1 71W       0.110000
     62 H281         0.9040    -4.4990    -2.0940 ha         1 71W       0.110000
     63 H291         1.5090    -2.1500    -1.5360 ha         1 71W       0.118500
@<TRIPOS>BOND
     1     1     2 1   
     2     1    30 1   
     3     2     3 1   
     4     2    14 1   
     5     2    31 1   
     6     3     4 1   
     7     3    32 1   
     8     3    33 1   
     9     4     5 1   
    10     4    34 1   
    11     4    35 1   
    12     5     6 1   
    13     5    14 1   
    14     5    23 1   
    15     6     7 1   
    16     6    13 2   
    17     7     8 ar  
    18     7    12 ar  
    19     8     9 ar  
    20     8    36 1   
    21     9    10 ar  
    22     9    37 1   
    23    10    11 ar  
    24    10    38 1   
    25    11    12 ar  
    26    11    39 1   
    27    12    40 1   
    28    13    41 1   
    29    13    42 1   
    30    14    15 1   
    31    14    43 1   
    32    15    16 1   
    33    15    44 1   
    34    15    45 1   
    35    16    17 1   
    36    16    23 2   
    37    17    18 1   
    38    17    46 1   
    39    17    47 1   
    40    18    19 1   
    41    18    48 1   
    42    18    49 1   
    43    19    20 1   
    44    19    50 1   
    45    19    51 1   
    46    20    21 1   
    47    20    52 1   
    48    20    53 1   
    49    21    22 1   
    50    21    54 1   
    51    21    55 1   
    52    22    56 1   
    53    22    57 1   
    54    22    58 1   
    55    23    24 1   
    56    24    25 ar  
    57    24    29 ar  
    58    25    26 ar  
    59    25    59 1   
    60    26    27 ar  
    61    26    60 1   
    62    27    28 ar  
    63    27    61 1   
    64    28    29 ar  
    65    28    62 1   
    66    29    63 1   
@<TRIPOS>SUBSTRUCTURE
     1 71W         1 TEMP              0 ****  ****    0 ROOT
