@<TRIPOS>MOLECULE
71X
   49    51     1     0     0
SMALL
abcg2


@<TRIPOS>ATOM
      1 N1          -1.9130    -1.0500    -1.1470 na         1 71X      -0.094000
      2 C4           5.1450     0.7880    -0.9530 ca         1 71X      -0.105000
      3 C5           4.7430     2.1100    -1.0160 ca         1 71X      -0.095000
      4 C6           3.4520     2.4250    -0.6210 ca         1 71X       0.117000
      5 C7           2.5820     1.4470    -0.1790 ca         1 71X      -0.088000
      6 C8           2.9940     0.1170    -0.1230 ca         1 71X      -0.091300
      7 C10         -0.3930    -0.5690     0.7740 c          1 71X       0.653700
      8 C13         -3.0510     0.8070     1.8100 c3         1 71X      -0.016100
      9 C15         -3.8170    -0.1140    -0.5520 cc         1 71X      -0.266600
     10 C17         -5.8430     1.1810     0.3630 c3         1 71X      -0.191100
     11 O2          -5.8700    -0.0360    -1.6570 o          1 71X      -0.562100
     12 C16         -5.2120     0.3070    -0.6870 c          1 71X       0.614700
     13 C19         -3.6400    -1.3940    -2.8530 c3         1 71X      -0.035800
     14 C18         -3.1710    -0.8520    -1.5510 cd         1 71X      -0.063300
     15 C14         -3.5760    -0.1220     2.9050 c3         1 71X      -0.084100
     16 O1          -0.2990    -0.5310     1.9930 o          1 71X      -0.578100
     17 C11         -1.6960    -0.4980     0.0950 cd         1 71X      -0.267600
     18 C9           2.0230    -0.9250     0.4040 c6         1 71X       0.159000
     19 C3           4.2920    -0.2220    -0.5100 ca         1 71X      -0.068300
     20 C2           4.7770    -1.6460    -0.4870 c6         1 71X      -0.030100
     21 C1           3.9140    -2.5420     0.3870 c6         1 71X      -0.109400
     22 C12         -2.8680     0.1020     0.5010 cc         1 71X      -0.013300
     23 N            0.6780    -0.6620    -0.0470 ns         1 71X      -0.512900
     24 C            2.4470    -2.3450     0.0390 c6         1 71X       0.157300
     25 O            1.5940    -3.2140     0.7420 oh         1 71X      -0.644000
     26 H2          -1.2570    -1.6270    -1.6500 hn         1 71X       0.346000
     27 H8           6.1520     0.5310    -1.2580 ha         1 71X       0.117000
     28 H9           5.4220     2.8770    -1.3620 ha         1 71X       0.132000
     29 H10          1.5800     1.7180     0.1260 ha         1 71X       0.139000
     30 H12         -3.7160     1.6600     1.6970 hc         1 71X       0.052200
     31 H13         -2.0950     1.2160     2.1340 hc         1 71X       0.052200
     32 H17         -5.3390     2.1480     0.4150 hc         1 71X       0.059700
     33 H19         -6.8900     1.3510     0.1210 hc         1 71X       0.059700
     34 H18         -5.7830     0.7320     1.3540 hc         1 71X       0.059700
     35 H20         -4.4540    -2.1050    -2.7180 hc         1 71X       0.058700
     36 H21         -4.0120    -0.6010    -3.5010 hc         1 71X       0.058700
     37 H22         -2.8260    -1.9020    -3.3700 hc         1 71X       0.058700
     38 H16         -4.5400    -0.5590     2.6430 hc         1 71X       0.037700
     39 H14         -2.8770    -0.9380     3.0760 hc         1 71X       0.037700
     40 H15         -3.7010     0.4210     3.8420 hc         1 71X       0.037700
     41 H11          2.0150    -0.8520     1.4960 h1         1 71X       0.111700
     42 H7           4.7840    -2.0310    -1.5120 hc         1 71X       0.054200
     43 H6           5.8160    -1.6750    -0.1520 hc         1 71X       0.054200
     44 H4           4.1970    -3.5870     0.2370 hc         1 71X       0.056200
     45 H5           4.0720    -2.3130     1.4450 hc         1 71X       0.056200
     46 H1           0.5510    -0.5450    -1.0400 hn         1 71X       0.306500
     47 H3           2.3270    -2.4720    -1.0490 h1         1 71X       0.025700
     48 H            1.7780    -4.1140     0.4560 ho         1 71X       0.443000
     49 CL           2.9170     4.0750    -0.6800 cl         1 71X      -0.199000
@<TRIPOS>BOND
     1     1    14 1   
     2     1    17 1   
     3     1    26 1   
     4     2     3 ar  
     5     2    19 ar  
     6     2    27 1   
     7     3     4 ar  
     8     3    28 1   
     9     4     5 ar  
    10     4    49 1   
    11     5     6 ar  
    12     5    29 1   
    13     6    18 1   
    14     6    19 ar  
    15     7    16 2   
    16     7    17 1   
    17     7    23 1   
    18     8    15 1   
    19     8    22 1   
    20     8    30 1   
    21     8    31 1   
    22     9    12 1   
    23     9    14 2   
    24     9    22 1   
    25    10    12 1   
    26    10    32 1   
    27    10    33 1   
    28    10    34 1   
    29    11    12 2   
    30    13    14 1   
    31    13    35 1   
    32    13    36 1   
    33    13    37 1   
    34    15    38 1   
    35    15    39 1   
    36    15    40 1   
    37    17    22 2   
    38    18    23 1   
    39    18    24 1   
    40    18    41 1   
    41    19    20 1   
    42    20    21 1   
    43    20    42 1   
    44    20    43 1   
    45    21    24 1   
    46    21    44 1   
    47    21    45 1   
    48    23    46 1   
    49    24    25 1   
    50    24    47 1   
    51    25    48 1   
@<TRIPOS>SUBSTRUCTURE
     1 71X         1 TEMP              0 ****  ****    0 ROOT
