@<TRIPOS>MOLECULE
71X
   49    51     1     0     0
SMALL
No Charge or Current Charge


@<TRIPOS>ATOM
      1 N1          -1.8750    -0.8340    -1.3080 na         1 71X      -0.094000
      2 C4           5.0690     0.7700    -1.0540 ca         1 71X      -0.105000
      3 C5           4.6040     2.0950    -1.0710 ca         1 71X      -0.095000
      4 C6           3.3330     2.3920    -0.5640 ca         1 71X       0.117000
      5 C7           2.5210     1.3690    -0.0490 ca         1 71X      -0.088000
      6 C8           2.9660     0.0270    -0.0430 ca         1 71X      -0.091300
      7 C10         -0.3640    -0.3460     0.7430 c          1 71X       0.653700
      8 C13         -3.1020     0.9000     1.7360 c3         1 71X      -0.016100
      9 C15         -3.8350    -0.0150    -0.6380 cc         1 71X      -0.266600
     10 C17         -6.0420     1.0180     0.4540 c3         1 71X      -0.191100
     11 O2          -5.9830     0.0620    -1.6840 o          1 71X      -0.562100
     12 C16         -5.3080     0.3290    -0.6970 c          1 71X       0.614700
     13 C19         -3.7070    -1.1360    -3.0230 c3         1 71X      -0.035800
     14 C18         -3.1990    -0.6550    -1.6830 cd         1 71X      -0.063300
     15 C14         -3.4440    -0.0850     2.8740 c3         1 71X      -0.084100
     16 O1          -0.2040     0.0840     1.8740 o          1 71X      -0.578100
     17 C11         -1.6530    -0.3180    -0.0230 cd         1 71X      -0.267600
     18 C9           2.0570    -1.0810     0.5380 c6         1 71X       0.159000
     19 C3           4.2650    -0.2640    -0.5360 ca         1 71X      -0.068300
     20 C2           4.8260    -1.6890    -0.5280 c6         1 71X      -0.030100
     21 C1           4.0860    -2.6250     0.4490 c6         1 71X      -0.109400
     22 C12         -2.8610     0.2110     0.4040 cc         1 71X      -0.013300
     23 N            0.6750    -0.9170     0.0440 ns         1 71X      -0.512900
     24 C            2.5650    -2.5240     0.2290 c6         1 71X       0.157300
     25 O            1.8960    -3.4900     1.0520 oh         1 71X      -0.644000
     26 H2          -1.1830    -1.2890    -1.8940 hn         1 71X       0.346000
     27 H8           6.0610     0.5470    -1.4420 ha         1 71X       0.117000
     28 H9           5.2300     2.8890    -1.4700 ha         1 71X       0.132000
     29 H10          1.5450     1.6300     0.3470 ha         1 71X       0.139000
     30 H12         -3.8630     1.6750     1.6690 hc         1 71X       0.052200
     31 H13         -2.2160     1.4720     2.0270 hc         1 71X       0.052200
     32 H17         -5.6570     2.0380     0.5540 hc         1 71X       0.059700
     33 H19         -7.1250     1.0510     0.2880 hc         1 71X       0.059700
     34 H18         -5.8070     0.5340     1.4030 hc         1 71X       0.059700
     35 H20         -4.5060    -1.8770    -2.9000 hc         1 71X       0.058700
     36 H21         -4.1030    -0.3040    -3.6170 hc         1 71X       0.058700
     37 H22         -2.9120    -1.6080    -3.6110 hc         1 71X       0.058700
     38 H16         -4.3190    -0.6940     2.6220 hc         1 71X       0.037700
     39 H14         -2.6050    -0.7650     3.0610 hc         1 71X       0.037700
     40 H15         -3.6570     0.4600     3.8010 hc         1 71X       0.037700
     41 H11          2.0610    -0.9620     1.6320 h1         1 71X       0.111700
     42 H7           4.7630    -2.1000    -1.5450 hc         1 71X       0.054200
     43 H6           5.8950    -1.6710    -0.2720 hc         1 71X       0.054200
     44 H4           4.4310    -3.6570     0.2990 hc         1 71X       0.056200
     45 H5           4.3350    -2.3540     1.4850 hc         1 71X       0.056200
     46 H1           0.4710    -1.2540    -0.8840 hn         1 71X       0.306500
     47 H3           2.3630    -2.7430    -0.8300 h1         1 71X       0.025700
     48 H            2.1750    -4.3770     0.7330 ho         1 71X       0.443000
     49 Cl           2.7520     4.0520    -0.5680 cl         1 71X      -0.199000
@<TRIPOS>BOND
     1     1    14 1   
     2     1    17 1   
     3     1    26 1   
     4     2     3 ar  
     5     2    19 ar  
     6     2    27 1   
     7     3     4 ar  
     8     3    28 1   
     9     4     5 ar  
    10     4    49 1   
    11     5     6 ar  
    12     5    29 1   
    13     6    18 1   
    14     6    19 ar  
    15     7    16 2   
    16     7    17 1   
    17     7    23 1   
    18     8    15 1   
    19     8    22 1   
    20     8    30 1   
    21     8    31 1   
    22     9    12 1   
    23     9    14 2   
    24     9    22 1   
    25    10    12 1   
    26    10    32 1   
    27    10    33 1   
    28    10    34 1   
    29    11    12 2   
    30    13    14 1   
    31    13    35 1   
    32    13    36 1   
    33    13    37 1   
    34    15    38 1   
    35    15    39 1   
    36    15    40 1   
    37    17    22 2   
    38    18    23 1   
    39    18    24 1   
    40    18    41 1   
    41    19    20 1   
    42    20    21 1   
    43    20    42 1   
    44    20    43 1   
    45    21    24 1   
    46    21    44 1   
    47    21    45 1   
    48    23    46 1   
    49    24    25 1   
    50    24    47 1   
    51    25    48 1   
@<TRIPOS>SUBSTRUCTURE
     1 71X         1 TEMP              0 ****  ****    0 ROOT
