@<TRIPOS>MOLECULE
71Y
   49    51     1     0     0
SMALL
No Charge or Current Charge


@<TRIPOS>ATOM
      1 N1           0.6910    -0.9010    -0.1010 ns         1 71Y      -0.512900
      2 C4          -3.2570    -0.3300     1.4190 cc         1 71Y      -0.091300
      3 C5          -3.8210     0.1730     0.2570 cd         1 71Y      -0.258600
      4 C6          -5.2710     0.5680     0.0800 c          1 71Y       0.609700
      5 C7          -6.2680     0.5010     1.2390 c3         1 71Y      -0.194100
      6 C8          -3.8080    -0.6350     2.7920 c3         1 71Y      -0.038800
      7 C10          2.0820    -1.1640    -0.5220 c6         1 71Y       0.159000
      8 C13          4.8040    -1.6610     0.7120 c6         1 71Y      -0.030100
      9 C15          5.0920     0.8440     0.8730 ca         1 71Y      -0.105000
     10 C17          3.4110     2.4080     0.0900 ca         1 71Y       0.117000
     11 O2           1.8780    -3.6200    -0.6780 oh         1 71Y      -0.643000
     12 C16          4.6600     2.1650     0.6770 ca         1 71Y      -0.095000
     13 C19          3.0010     0.0000    -0.0830 ca         1 71Y      -0.091300
     14 C18          2.5900     1.3360    -0.2920 ca         1 71Y      -0.088000
     15 C14          4.2780    -0.2400     0.4890 ca         1 71Y      -0.068300
     16 O1          -0.1100    -0.1690    -2.0850 o          1 71Y      -0.574100
     17 C11          2.5470    -2.5550     0.0140 c6         1 71Y       0.158300
     18 C9          -0.3140    -0.4200    -0.9080 c          1 71Y       0.652700
     19 C3          -1.6170    -0.2570    -0.1980 cc         1 71Y      -0.268600
     20 C2          -2.7890     0.2400    -0.7420 cd         1 71Y       0.004700
     21 C1          -2.9660     0.7720    -2.1560 c3         1 71Y      -0.013100
     22 C12          4.0710    -2.7170    -0.1390 c6         1 71Y      -0.109400
     23 Cl           2.8710     4.0620    -0.1720 cl         1 71Y      -0.199000
     24 N           -1.9240    -0.5770     1.1270 na         1 71Y      -0.092000
     25 O           -5.7060     0.9520    -0.9970 o          1 71Y      -0.537100
     26 C           -3.4120    -0.3180    -3.1500 c3         1 71Y      -0.078100
     27 H12          0.4540    -1.0890     0.8600 hn         1 71Y       0.304500
     28 H7          -5.8860     1.0820     2.0830 hc         1 71Y       0.055367
     29 H8          -7.2660     0.8480     0.9480 hc         1 71Y       0.055367
     30 H6          -6.3150    -0.5240     1.6180 hc         1 71Y       0.055367
     31 H9          -4.6000    -1.3900     2.7500 hc         1 71Y       0.052700
     32 H10         -3.0260    -1.0380     3.4470 hc         1 71Y       0.052700
     33 H11         -4.1930     0.2650     3.2830 hc         1 71Y       0.052700
     34 H13          2.1200    -1.2100    -1.6210 h1         1 71Y       0.111700
     35 H19          5.8800    -1.7030     0.4910 hc         1 71Y       0.053700
     36 H18          4.7010    -1.9140     1.7760 hc         1 71Y       0.053700
     37 H20          6.0660     0.6620     1.3220 ha         1 71Y       0.117000
     38 H15          2.1230    -4.4530    -0.2200 ho         1 71Y       0.443000
     39 H21          5.2930     2.9980     0.9720 ha         1 71Y       0.132000
     40 H22          1.6320     1.5550    -0.7540 ha         1 71Y       0.139000
     41 H14          2.3080    -2.6090     1.0860 h1         1 71Y       0.024700
     42 H4          -3.6840     1.5980    -2.1790 hc         1 71Y       0.058200
     43 H5          -2.0460     1.2370    -2.5220 hc         1 71Y       0.058200
     44 H16          4.3560    -2.6090    -1.1950 hc         1 71Y       0.056700
     45 H17          4.3850    -3.7220     0.1740 hc         1 71Y       0.056700
     46 H           -1.2720    -0.9620     1.8020 hn         1 71Y       0.345000
     47 H2          -2.6660    -1.1210    -3.2010 hc         1 71Y       0.037367
     48 H3          -4.3680    -0.7570    -2.8420 hc         1 71Y       0.037367
     49 H1          -3.5330     0.1040    -4.1540 hc         1 71Y       0.037367
@<TRIPOS>BOND
     1     1     7 1   
     2     1    18 1   
     3     1    27 1   
     4     2     3 2   
     5     2     6 1   
     6     2    24 1   
     7     3     4 1   
     8     3    20 1   
     9     4     5 1   
    10     4    25 2   
    11     5    28 1   
    12     5    29 1   
    13     5    30 1   
    14     6    31 1   
    15     6    32 1   
    16     6    33 1   
    17     7    13 1   
    18     7    17 1   
    19     7    34 1   
    20     8    15 1   
    21     8    22 1   
    22     8    35 1   
    23     8    36 1   
    24     9    12 ar  
    25     9    15 ar  
    26     9    37 1   
    27    10    12 ar  
    28    10    14 ar  
    29    10    23 1   
    30    11    17 1   
    31    11    38 1   
    32    12    39 1   
    33    13    14 ar  
    34    13    15 ar  
    35    14    40 1   
    36    16    18 2   
    37    17    22 1   
    38    17    41 1   
    39    18    19 1   
    40    19    20 2   
    41    19    24 1   
    42    20    21 1   
    43    21    26 1   
    44    21    42 1   
    45    21    43 1   
    46    22    44 1   
    47    22    45 1   
    48    24    46 1   
    49    26    47 1   
    50    26    48 1   
    51    26    49 1   
@<TRIPOS>SUBSTRUCTURE
     1 71Y         1 TEMP              0 ****  ****    0 ROOT
