@<TRIPOS>MOLECULE
71Y
   49    51     1     0     0
SMALL
abcg2


@<TRIPOS>ATOM
      1 N1           0.6910    -0.6740    -0.0420 ns         1 71Y      -0.512900
      2 C4          -3.2190    -0.5130     1.3180 cc         1 71Y      -0.091300
      3 C5          -3.8010     0.0790     0.1920 cd         1 71Y      -0.258600
      4 C6          -5.1700     0.5780     0.0700 c          1 71Y       0.609700
      5 C7          -6.0440     0.6320     1.2980 c3         1 71Y      -0.194100
      6 C8          -3.7340    -0.8690     2.6690 c3         1 71Y      -0.038800
      7 C10          2.0460    -1.0060    -0.4110 c6         1 71Y       0.159000
      8 C13          4.7590    -1.6300     0.6590 c6         1 71Y      -0.030100
      9 C15          5.1470     0.8410     0.8120 ca         1 71Y      -0.105000
     10 C17          3.4900     2.4360     0.2080 ca         1 71Y       0.117000
     11 O2           1.6010    -3.3180    -0.4640 oh         1 71Y      -0.643000
     12 C16          4.7630     2.1640     0.6840 ca         1 71Y      -0.095000
     13 C19          3.0140     0.0870     0.0060 ca         1 71Y      -0.091300
     14 C18          2.6200     1.4170    -0.1290 ca         1 71Y      -0.088000
     15 C14          4.2930    -0.2100     0.4800 ca         1 71Y      -0.068300
     16 O1          -0.2070    -0.7740    -2.1200 o          1 71Y      -0.574100
     17 C11          2.4420    -2.3710     0.1450 c6         1 71Y       0.158300
     18 C9          -0.3460    -0.6520    -0.9100 c          1 71Y       0.652700
     19 C3          -1.6690    -0.4510    -0.3020 cc         1 71Y      -0.268600
     20 C2          -2.8040     0.1100    -0.8390 cd         1 71Y       0.004700
     21 C1          -2.9360     0.6670    -2.2220 c3         1 71Y      -0.013100
     22 C12          3.9170    -2.6210    -0.1270 c6         1 71Y      -0.109400
     23 CL           2.9790     4.0850     0.0300 cl         1 71Y      -0.199000
     24 N           -1.9520    -0.8080     0.9970 na         1 71Y      -0.092000
     25 O           -5.6140     0.9550    -1.0020 o          1 71Y      -0.537100
     26 C           -3.5240    -0.3440    -3.2040 c3         1 71Y      -0.078100
     27 H12          0.5360    -0.4230     0.9220 hn         1 71Y       0.304500
     28 H7          -5.5790     1.2130     2.0950 hc         1 71Y       0.055367
     29 H8          -7.0010     1.0860     1.0490 hc         1 71Y       0.055367
     30 H6          -6.2310    -0.3670     1.6950 hc         1 71Y       0.055367
     31 H9          -4.5810    -1.5510     2.6120 hc         1 71Y       0.052700
     32 H10         -2.9560    -1.3570     3.2550 hc         1 71Y       0.052700
     33 H11         -4.0580     0.0120     3.2230 hc         1 71Y       0.052700
     34 H13          2.0720    -1.0750    -1.5020 h1         1 71Y       0.111700
     35 H19          5.8100    -1.7120     0.3730 hc         1 71Y       0.053700
     36 H18          4.7200    -1.8810     1.7240 hc         1 71Y       0.053700
     37 H20          6.1400     0.6150     1.1830 ha         1 71Y       0.117000
     38 H15          1.7700    -4.1740    -0.0600 ho         1 71Y       0.443000
     39 H21          5.4420     2.9630     0.9470 ha         1 71Y       0.132000
     40 H22          1.6310     1.6570    -0.4950 ha         1 71Y       0.139000
     41 H14          2.2890    -2.3570     1.2370 h1         1 71Y       0.024700
     42 H4          -3.5630     1.5570    -2.2000 hc         1 71Y       0.058200
     43 H5          -1.9560     0.9790    -2.5810 hc         1 71Y       0.058200
     44 H16          4.1140    -2.5270    -1.1990 hc         1 71Y       0.056700
     45 H17          4.1830    -3.6410     0.1620 hc         1 71Y       0.056700
     46 H           -1.3380    -1.3270     1.6070 hn         1 71Y       0.345000
     47 H2          -2.8780    -1.2170    -3.2890 hc         1 71Y       0.037367
     48 H3          -4.5100    -0.6760    -2.8850 hc         1 71Y       0.037367
     49 H1          -3.6240     0.0980    -4.1970 hc         1 71Y       0.037367
@<TRIPOS>BOND
     1     1     7 1   
     2     1    18 1   
     3     1    27 1   
     4     2     3 2   
     5     2     6 1   
     6     2    24 1   
     7     3     4 1   
     8     3    20 1   
     9     4     5 1   
    10     4    25 2   
    11     5    28 1   
    12     5    29 1   
    13     5    30 1   
    14     6    31 1   
    15     6    32 1   
    16     6    33 1   
    17     7    13 1   
    18     7    17 1   
    19     7    34 1   
    20     8    15 1   
    21     8    22 1   
    22     8    35 1   
    23     8    36 1   
    24     9    12 ar  
    25     9    15 ar  
    26     9    37 1   
    27    10    12 ar  
    28    10    14 ar  
    29    10    23 1   
    30    11    17 1   
    31    11    38 1   
    32    12    39 1   
    33    13    14 ar  
    34    13    15 ar  
    35    14    40 1   
    36    16    18 2   
    37    17    22 1   
    38    17    41 1   
    39    18    19 1   
    40    19    20 2   
    41    19    24 1   
    42    20    21 1   
    43    21    26 1   
    44    21    42 1   
    45    21    43 1   
    46    22    44 1   
    47    22    45 1   
    48    24    46 1   
    49    26    47 1   
    50    26    48 1   
    51    26    49 1   
@<TRIPOS>SUBSTRUCTURE
     1 71Y         1 TEMP              0 ****  ****    0 ROOT
