@<TRIPOS>MOLECULE
720
   37    37     1     0     0
SMALL
bcc


@<TRIPOS>ATOM
      1 N            1.7030    -5.9570    -1.8990 n8         1 720      -0.891800
      2 CA           1.4120    -4.5310    -1.8610 c3         1 720       0.134800
      3 CG          -3.5610     0.7020     2.2300 cc         1 720       0.371400
      4 CE1         -2.4180     1.3050     6.7790 c3         1 720      -0.088100
      5 CE2         -2.5000     1.6380     4.2900 c3         1 720       0.053300
      6 CZ          -2.4180     0.6210     5.4200 c3         1 720      -0.101400
      7 CH           0.3190    -4.1000    -0.8870 c3         1 720      -0.108400
      8 CM           0.0660    -2.5980    -0.9240 c3         1 720      -0.039400
      9 CA2         -0.9290    -2.0990     0.1230 c3         1 720      -0.189700
     10 CB2         -1.0560    -0.5720     0.0280 c3         1 720      -0.076700
     11 CG2         -1.8540     0.0460     1.1250 cd         1 720       0.361600
     12 CD3         -1.3860     0.6080     2.2830 cc         1 720      -0.297600
     13 N2          -3.2210     0.1160     1.1090 nd         1 720      -0.620000
     14 C           -2.2990    -2.7800    -0.0470 c          1 720       0.935600
     15 N1          -2.4870     1.0270     2.9770 na         1 720      -0.204900
     16 O           -2.8650    -2.6110    -1.1490 o          1 720      -0.840300
     17 OXT         -2.7310    -3.4600     0.9040 o          1 720      -0.840300
     18 HN1          0.8530    -6.4630    -2.1200 hn         1 720       0.327800
     19 HN2          1.9640    -6.2690    -0.9700 hn         1 720       0.327800
     20 HAC1         1.1400    -4.2120    -2.8720 h1         1 720       0.038700
     21 HAC2         2.3390    -4.0020    -1.6190 h1         1 720       0.038700
     22 HHC1         0.6020    -4.4020     0.1280 hc         1 720       0.048700
     23 HHC2        -0.6020    -4.6400    -1.1280 hc         1 720       0.048700
     24 HE21        -1.6640     2.3370     4.3490 h1         1 720       0.043200
     25 HE22        -3.4140     2.2270     4.3770 h1         1 720       0.043200
     26 HZC1        -1.5120     0.0210     5.3040 hc         1 720       0.060700
     27 HZC2        -3.2640    -0.0670     5.3440 hc         1 720       0.060700
     28 HE11        -1.5670     1.9810     6.8830 hc         1 720       0.028033
     29 HE12        -2.3600     0.5760     7.5870 hc         1 720       0.028033
     30 HE13        -3.3260     1.8920     6.9270 hc         1 720       0.028033
     31 HG          -4.5680     0.9270     2.5480 h5         1 720       0.036100
     32 HMC1        -0.2880    -2.3130    -1.9210 hc         1 720       0.016700
     33 HMC2         1.0180    -2.0740    -0.7800 hc         1 720       0.016700
     34 HA2         -0.5340    -2.3440     1.1160 hc         1 720       0.028700
     35 HB21        -1.4980    -0.3160    -0.9390 hc         1 720       0.032200
     36 HB22        -0.0520    -0.1380     0.0370 hc         1 720       0.032200
     37 HD3         -0.3850     0.7520     2.6550 h4         1 720       0.157000
@<TRIPOS>BOND
     1     1     2 1   
     2     1    18 1   
     3     1    19 1   
     4     2     7 1   
     5     2    20 1   
     6     2    21 1   
     7     3    13 2   
     8     3    15 1   
     9     3    31 1   
    10     4     6 1   
    11     4    28 1   
    12     4    29 1   
    13     4    30 1   
    14     5     6 1   
    15     5    15 1   
    16     5    24 1   
    17     5    25 1   
    18     6    26 1   
    19     6    27 1   
    20     7     8 1   
    21     7    22 1   
    22     7    23 1   
    23     8     9 1   
    24     8    32 1   
    25     8    33 1   
    26     9    10 1   
    27     9    14 1   
    28     9    34 1   
    29    10    11 1   
    30    10    35 1   
    31    10    36 1   
    32    11    12 2   
    33    11    13 1   
    34    12    15 1   
    35    12    37 1   
    36    14    16 1   
    37    14    17 1   
@<TRIPOS>SUBSTRUCTURE
     1 720         1 TEMP              0 ****  ****    0 ROOT
