@<TRIPOS>MOLECULE
720
   37    37     1     0     0
SMALL
No Charge or Current Charge


@<TRIPOS>ATOM
      1 N            1.7700    -5.9510    -1.6720 n8         1 720      -1.002200
      2 CA           1.3000    -4.5860    -1.9680 c3         1 720       0.134800
      3 CG          -3.4500     1.2340     2.0490 cc         1 720       0.371400
      4 CE1         -2.5950     0.9430     6.7740 c3         1 720      -0.088100
      5 CE2         -2.3130     1.5700     4.2970 c3         1 720       0.082600
      6 CZ          -2.6590     0.4610     5.3110 c3         1 720      -0.101400
      7 CH           0.4700    -4.0130    -0.8020 c3         1 720      -0.108400
      8 CM          -0.0360    -2.5790    -1.0790 c3         1 720      -0.039400
      9 CA2         -0.8340    -1.9490     0.0960 c3         1 720      -0.189700
     10 CB2         -1.2030    -0.4660    -0.1930 c3         1 720      -0.076700
     11 CG2         -1.8920     0.2150     0.9650 cd         1 720       0.296300
     12 CD3         -1.3750     0.4570     2.2120 cc         1 720      -0.265000
     13 N2          -3.1770     0.7070     0.8660 nd         1 720      -0.620000
     14 C           -2.0900    -2.7790     0.4660 c          1 720       0.725000
     15 N1          -2.3750     1.1050     2.9040 na         1 720      -0.183500
     16 O           -2.9620    -2.9330    -0.3780 o          1 720      -0.735000
     17 OXT         -2.1490    -3.2640     1.5860 o          1 720      -0.735000
     18 HN1          0.9590    -6.5420    -1.4530 hn         1 720       0.383000
     19 HN2          2.3030    -5.9360    -0.7940 hn         1 720       0.383000
     20 HAC1         0.6870    -4.6110    -2.8810 h1         1 720       0.038700
     21 HAC2         2.1720    -3.9430    -2.1540 h1         1 720       0.038700
     22 HHC1         1.0810    -4.0070     0.1100 hc         1 720       0.048700
     23 HHC2        -0.3860    -4.6720    -0.6130 hc         1 720       0.048700
     24 HE21        -1.3010     1.9440     4.4950 h1         1 720       0.043200
     25 HE22        -3.0120     2.4080     4.4200 h1         1 720       0.043200
     26 HZC1        -1.9640    -0.3780     5.1790 hc         1 720       0.060700
     27 HZC2        -3.6660     0.0800     5.1020 hc         1 720       0.060700
     28 HE11        -1.5870     1.3000     7.0210 hc         1 720       0.028033
     29 HE12        -2.8460     0.1240     7.4580 hc         1 720       0.028033
     30 HE13        -3.3040     1.7620     6.9430 hc         1 720       0.028033
     31 HG          -4.3760     1.7120     2.3440 h5         1 720       0.036100
     32 HMC1        -0.6600    -2.5850    -1.9820 hc         1 720       0.016700
     33 HMC2         0.8290    -1.9410    -1.3010 hc         1 720       0.016700
     34 HA2         -0.1700    -1.9450     0.9700 hc         1 720       0.028700
     35 HB21        -1.8340    -0.4190    -1.0890 hc         1 720       0.032200
     36 HB22        -0.2880     0.0880    -0.4350 hc         1 720       0.032200
     37 HD3         -0.4090     0.2200     2.6360 h4         1 720       0.139000
@<TRIPOS>BOND
     1     1     2 1   
     2     1    18 1   
     3     1    19 1   
     4     2     7 1   
     5     2    20 1   
     6     2    21 1   
     7     3    13 2   
     8     3    15 1   
     9     3    31 1   
    10     4     6 1   
    11     4    28 1   
    12     4    29 1   
    13     4    30 1   
    14     5     6 1   
    15     5    15 1   
    16     5    24 1   
    17     5    25 1   
    18     6    26 1   
    19     6    27 1   
    20     7     8 1   
    21     7    22 1   
    22     7    23 1   
    23     8     9 1   
    24     8    32 1   
    25     8    33 1   
    26     9    10 1   
    27     9    14 1   
    28     9    34 1   
    29    10    11 1   
    30    10    35 1   
    31    10    36 1   
    32    11    12 2   
    33    11    13 1   
    34    12    15 1   
    35    12    37 1   
    36    14    16 1   
    37    14    17 1   
@<TRIPOS>SUBSTRUCTURE
     1 720         1 TEMP              0 ****  ****    0 ROOT
