@<TRIPOS>MOLECULE
721
   37    37     1     0     0
SMALL
bcc


@<TRIPOS>ATOM
      1 O6          -0.7670     1.8030    -1.1430 o          1 721      -0.902667
      2 P2          -1.1630     1.4580     0.3050 p5         1 721       1.153700
      3 O5           0.0800     1.0910     1.1550 o          1 721      -0.902667
      4 O4          -2.0440     2.5040     0.9870 o          1 721      -0.902667
      5 C1          -2.1260    -0.1380     0.2030 c3         1 721      -0.307100
      6 P1          -3.9240    -0.0380    -0.3260 p5         1 721       1.153700
      7 O3          -3.9800     0.8390    -1.5810 o          1 721      -0.902667
      8 O2          -4.3080    -1.5050    -0.6180 o          1 721      -0.902667
      9 O1          -4.6820     0.5310     0.8790 o          1 721      -0.902667
     10 C2          -1.4190    -1.1240    -0.7100 c3         1 721       0.051300
     11 N1          -0.0700    -1.4960    -0.2200 na         1 721       0.066900
     12 C3           0.0520    -2.5680     0.5870 ca         1 721      -0.076300
     13 C4           1.2650    -2.8760     1.1350 ca         1 721      -0.205000
     14 C5           2.3780    -2.0790     0.8610 ca         1 721      -0.233000
     15 C7           0.9500    -0.6850    -0.4620 ca         1 721       0.004700
     16 C6           2.2190    -0.9700     0.0520 ca         1 721       0.118100
     17 O7           3.1790    -0.1120    -0.3030 os         1 721      -0.286900
     18 C8           4.5080    -0.3580     0.1410 c3         1 721       0.150400
     19 C9           5.4070     0.7170    -0.4290 c3         1 721      -0.084400
     20 C10          6.8590     0.5130    -0.0090 c3         1 721      -0.074400
     21 C11          7.7810     1.5790    -0.5820 c3         1 721      -0.085100
     22 H1          -2.1430    -0.5800     1.2090 hc         1 721       0.032700
     23 H2          -1.9820    -2.0500    -0.8000 h1         1 721       0.067700
     24 H2A         -1.2920    -0.6980    -1.7030 h1         1 721       0.067700
     25 H3          -0.8390    -3.1520     0.7560 h4         1 721       0.169000
     26 H4           1.3570    -3.7450     1.7700 ha         1 721       0.101000
     27 H5           3.3350    -2.3410     1.2890 ha         1 721       0.095000
     28 H7           0.7610     0.1530    -1.1210 h4         1 721       0.258000
     29 H8           4.5470    -0.3490     1.2360 h1         1 721       0.015700
     30 H8A          4.8370    -1.3490    -0.1950 h1         1 721       0.015700
     31 H9           5.3370     0.7090    -1.5210 hc         1 721       0.061200
     32 H9A          5.0610     1.6990    -0.0920 hc         1 721       0.061200
     33 H10          6.9280     0.5160     1.0830 hc         1 721       0.027200
     34 H10A         7.1980    -0.4750    -0.3330 hc         1 721       0.027200
     35 H11          7.7520     1.5790    -1.6730 hc         1 721       0.023033
     36 H11A         7.4900     2.5750    -0.2440 hc         1 721       0.023033
     37 H11B         8.8150     1.4150    -0.2770 hc         1 721       0.023033
@<TRIPOS>BOND
     1     1     2 1   
     2     2     3 1   
     3     2     4 1   
     4     2     5 1   
     5     5     6 1   
     6     5    10 1   
     7     5    22 1   
     8     6     7 1   
     9     6     8 1   
    10     6     9 1   
    11    10    11 1   
    12    10    23 1   
    13    10    24 1   
    14    11    12 1   
    15    11    15 2   
    16    12    13 ar  
    17    12    25 1   
    18    13    14 ar  
    19    13    26 1   
    20    14    16 ar  
    21    14    27 1   
    22    15    16 ar  
    23    15    28 1   
    24    16    17 1   
    25    17    18 1   
    26    18    19 1   
    27    18    29 1   
    28    18    30 1   
    29    19    20 1   
    30    19    31 1   
    31    19    32 1   
    32    20    21 1   
    33    20    33 1   
    34    20    34 1   
    35    21    35 1   
    36    21    36 1   
    37    21    37 1   
@<TRIPOS>SUBSTRUCTURE
     1 721         1 TEMP              0 ****  ****    0 ROOT
