@<TRIPOS>MOLECULE
721
   37    37     1     0     0
SMALL
No Charge or Current Charge


@<TRIPOS>ATOM
      1 O6          -1.2110     2.0140    -0.6090 o          1 721      -0.902667
      2 P2          -1.9020     1.4440     0.5830 p5         1 721       1.311500
      3 O5          -0.8930     1.3090     1.6710 o          1 721      -0.902667
      4 O4          -3.0000     2.3370     1.0500 o          1 721      -0.902667
      5 C1          -2.4300    -0.2330     0.2130 c3         1 721      -0.622700
      6 P1          -4.0140    -0.1170    -0.6190 p5         1 721       1.311500
      7 O3          -3.9920     0.8550    -1.7480 o          1 721      -0.902667
      8 O2          -4.2960    -1.4800    -1.1560 o          1 721      -0.902667
      9 O1          -5.0860     0.2030     0.3670 o          1 721      -0.902667
     10 C2          -1.4030    -1.0140    -0.6480 c3         1 721       0.080600
     11 N1          -0.1040    -1.2790     0.0070 na         1 721       0.088300
     12 C3           0.0510    -2.4050     0.8210 ca         1 721      -0.109000
     13 C4           1.3230    -2.8130     1.2590 ca         1 721      -0.187000
     14 C5           2.4580    -2.0690     0.8960 ca         1 721      -0.215000
     15 C7           1.0240    -0.5220    -0.3190 ca         1 721       0.022700
     16 C6           2.3080    -0.9070     0.1050 ca         1 721       0.118100
     17 O7           3.3810    -0.1230    -0.2720 os         1 721      -0.310100
     18 C8           4.7290    -0.4370     0.1120 c3         1 721       0.173600
     19 C9           5.6500     0.6430    -0.4850 c3         1 721      -0.084400
     20 C10          7.1390     0.4200    -0.1440 c3         1 721      -0.074400
     21 C11          8.0640     1.4990    -0.7400 c3         1 721      -0.085100
     22 H1          -2.5970    -0.7570     1.1580 hc         1 721       0.032700
     23 H2          -1.8240    -1.9890    -0.9240 h1         1 721       0.067700
     24 H2A         -1.2240    -0.4760    -1.5890 h1         1 721       0.067700
     25 H3          -0.8500    -2.9570     1.0930 h4         1 721       0.151000
     26 H4           1.4270    -3.7000     1.8800 ha         1 721       0.083000
     27 H5           3.4340    -2.3980     1.2430 ha         1 721       0.077000
     28 H7           0.8770     0.3790    -0.9110 h4         1 721       0.240000
     29 H8           4.8280    -0.4410     1.2060 h1         1 721       0.015700
     30 H8A          5.0210    -1.4230    -0.2730 h1         1 721       0.015700
     31 H9           5.5250     0.6550    -1.5750 hc         1 721       0.061200
     32 H9A          5.3350     1.6260    -0.1120 hc         1 721       0.061200
     33 H10          7.2650     0.4070     0.9460 hc         1 721       0.027200
     34 H10A         7.4540    -0.5630    -0.5150 hc         1 721       0.027200
     35 H11          7.9870     1.5140    -1.8340 hc         1 721       0.023033
     36 H11A         7.7960     2.4930    -0.3600 hc         1 721       0.023033
     37 H11B         9.1080     1.2990    -0.4720 hc         1 721       0.023033
@<TRIPOS>BOND
     1     1     2 1   
     2     2     3 1   
     3     2     4 1   
     4     2     5 1   
     5     5     6 1   
     6     5    10 1   
     7     5    22 1   
     8     6     7 1   
     9     6     8 1   
    10     6     9 1   
    11    10    11 1   
    12    10    23 1   
    13    10    24 1   
    14    11    12 1   
    15    11    15 2   
    16    12    13 ar  
    17    12    25 1   
    18    13    14 ar  
    19    13    26 1   
    20    14    16 ar  
    21    14    27 1   
    22    15    16 ar  
    23    15    28 1   
    24    16    17 1   
    25    17    18 1   
    26    18    19 1   
    27    18    29 1   
    28    18    30 1   
    29    19    20 1   
    30    19    31 1   
    31    19    32 1   
    32    20    21 1   
    33    20    33 1   
    34    20    34 1   
    35    21    35 1   
    36    21    36 1   
    37    21    37 1   
@<TRIPOS>SUBSTRUCTURE
     1 721         1 TEMP              0 ****  ****    0 ROOT
