@<TRIPOS>MOLECULE
722
   46    46     1     0     0
SMALL
No Charge or Current Charge


@<TRIPOS>ATOM
      1 O1          -5.5410    -1.1630     1.4240 o          1 722      -0.904667
      2 P1          -5.1880     0.1300     0.7690 p5         1 722       1.307000
      3 O3          -6.2910     0.4640    -0.1770 o          1 722      -0.904667
      4 O2          -5.0230     1.1760     1.8170 o          1 722      -0.904667
      5 C1          -3.6710    -0.1750    -0.1380 c3         1 722      -0.606700
      6 P2          -3.0350     1.4210    -0.6690 p5         1 722       1.307000
      7 O4          -4.0850     2.3650    -1.1420 o          1 722      -0.904667
      8 O5          -2.2280     2.0190     0.4330 o          1 722      -0.904667
      9 O6          -2.1100     1.1220    -1.7990 o          1 722      -0.904667
     10 C2          -2.6570    -0.9710     0.7240 c3         1 722       0.079600
     11 N1          -1.4180    -1.3760     0.0270 na         1 722       0.105300
     12 C7          -0.2100    -0.7240     0.2870 ca         1 722      -0.039000
     13 C6           1.0130    -1.2450    -0.1670 ca         1 722       0.114100
     14 C5           1.0210    -2.4400    -0.9220 ca         1 722      -0.212000
     15 C4          -0.1940    -3.0790    -1.2210 ca         1 722      -0.174000
     16 C3          -1.4040    -2.5350    -0.7540 ca         1 722      -0.061300
     17 O7           2.1680    -0.5580     0.1460 os         1 722      -0.313100
     18 C8           3.4650    -1.0130    -0.2720 c3         1 722       0.173600
     19 C9           4.5070    -0.0090     0.2560 c3         1 722      -0.083400
     20 C10          5.9550    -0.3880    -0.1270 c3         1 722      -0.073400
     21 C11          7.0030     0.6160     0.4010 c3         1 722      -0.075400
     22 C12          8.4500     0.2370     0.0180 c3         1 722      -0.075400
     23 C13          9.4980     1.2400     0.5460 c3         1 722      -0.076400
     24 C14         10.9420     0.8620     0.1640 c3         1 722      -0.086100
     25 H1          -3.9350    -0.7520    -1.0290 hc         1 722       0.031700
     26 H2          -2.3900    -0.3860     1.6140 h1         1 722       0.066200
     27 H2A         -3.1310    -1.8910     1.0890 h1         1 722       0.066200
     28 H7          -0.2490     0.2070     0.8490 h4         1 722       0.242000
     29 H5           1.9460    -2.8730    -1.2910 ha         1 722       0.077000
     30 H4          -0.2010    -3.9900    -1.8150 ha         1 722       0.083000
     31 H3          -2.3640    -3.0040    -0.9760 h4         1 722       0.151000
     32 H8           3.6760    -2.0100     0.1370 h1         1 722       0.017200
     33 H8A          3.5240    -1.0610    -1.3680 h1         1 722       0.017200
     34 H9           4.2760     0.9870    -0.1410 hc         1 722       0.059700
     35 H9A          4.4240     0.0490     1.3480 hc         1 722       0.059700
     36 H10          6.1820    -1.3860     0.2670 hc         1 722       0.029700
     37 H10A         6.0340    -0.4500    -1.2200 hc         1 722       0.029700
     38 H11          6.7760     1.6150     0.0060 hc         1 722       0.040700
     39 H11A         6.9240     0.6780     1.4940 hc         1 722       0.040700
     40 H12          8.6770    -0.7620     0.4130 hc         1 722       0.032200
     41 H12A         8.5290     0.1750    -1.0750 hc         1 722       0.032200
     42 H13          9.2760     2.2400     0.1510 hc         1 722       0.036700
     43 H13A         9.4240     1.3030     1.6380 hc         1 722       0.036700
     44 H14         11.6480     1.6020     0.5590 hc         1 722       0.023367
     45 H14A        11.2070    -0.1200     0.5740 hc         1 722       0.023367
     46 H14B        11.0580     0.8250    -0.9260 hc         1 722       0.023367
@<TRIPOS>BOND
     1     1     2 1   
     2     2     3 1   
     3     2     4 1   
     4     2     5 1   
     5     5     6 1   
     6     5    10 1   
     7     5    25 1   
     8     6     7 1   
     9     6     8 1   
    10     6     9 1   
    11    10    11 1   
    12    10    26 1   
    13    10    27 1   
    14    11    12 1   
    15    11    16 2   
    16    12    13 ar  
    17    12    28 1   
    18    13    14 ar  
    19    13    17 1   
    20    14    15 ar  
    21    14    29 1   
    22    15    16 ar  
    23    15    30 1   
    24    16    31 1   
    25    17    18 1   
    26    18    19 1   
    27    18    32 1   
    28    18    33 1   
    29    19    20 1   
    30    19    34 1   
    31    19    35 1   
    32    20    21 1   
    33    20    36 1   
    34    20    37 1   
    35    21    22 1   
    36    21    38 1   
    37    21    39 1   
    38    22    23 1   
    39    22    40 1   
    40    22    41 1   
    41    23    24 1   
    42    23    42 1   
    43    23    43 1   
    44    24    44 1   
    45    24    45 1   
    46    24    46 1   
@<TRIPOS>SUBSTRUCTURE
     1 722         1 TEMP              0 ****  ****    0 ROOT
