@<TRIPOS>MOLECULE
722
   46    46     1     0     0
SMALL
bcc


@<TRIPOS>ATOM
      1 O1          -5.4180    -1.2190     1.3420 o          1 722      -0.904667
      2 P1          -5.0420     0.1390     0.7090 p5         1 722       1.149200
      3 O3          -6.0000     0.5380    -0.4180 o          1 722      -0.904667
      4 O2          -4.8170     1.2290     1.7630 o          1 722      -0.904667
      5 C1          -3.3820    -0.1870    -0.1050 c3         1 722      -0.291100
      6 P2          -2.4040     1.2950    -0.6780 p5         1 722       1.149200
      7 O4          -3.3650     2.2320    -1.4110 o          1 722      -0.904667
      8 O5          -1.7740     1.8960     0.5920 o          1 722      -0.904667
      9 O6          -1.3250     0.7000    -1.6140 o          1 722      -0.904667
     10 C2          -2.5610    -1.0270     0.8540 c3         1 722       0.050300
     11 N1          -1.2910    -1.5190     0.2680 na         1 722       0.083900
     12 C7          -0.2180    -0.7440     0.3090 ca         1 722      -0.006300
     13 C6           0.9840    -1.1620    -0.2650 ca         1 722       0.114100
     14 C5           1.0140    -2.3650    -0.9460 ca         1 722      -0.230000
     15 C4          -0.1540    -3.1240    -1.0160 ca         1 722      -0.192000
     16 C3          -1.2940    -2.6860    -0.3970 ca         1 722      -0.079300
     17 O7           2.0150    -0.3310    -0.0910 os         1 722      -0.289900
     18 C8           3.3130    -0.7560    -0.4920 c3         1 722       0.150400
     19 C9           4.3290     0.2110     0.0750 c3         1 722      -0.083400
     20 C10          5.7480    -0.1810    -0.3210 c3         1 722      -0.073400
     21 C11          6.8100     0.6710     0.3610 c3         1 722      -0.075400
     22 C12          8.2280     0.2810    -0.0380 c3         1 722      -0.075400
     23 C13          9.3020     1.0830     0.6860 c3         1 722      -0.076400
     24 C14         10.7130     0.6830     0.2770 c3         1 722      -0.086100
     25 H1          -3.6020    -0.8070    -0.9860 hc         1 722       0.031700
     26 H2          -2.2980    -0.4430     1.7340 h1         1 722       0.066200
     27 H2A         -3.1100    -1.9070     1.1800 h1         1 722       0.066200
     28 H7          -0.3160     0.2010     0.8300 h4         1 722       0.260000
     29 H5           1.9110    -2.7300    -1.4270 ha         1 722       0.095000
     30 H4          -0.1650    -4.0650    -1.5450 ha         1 722       0.101000
     31 H3          -2.2180    -3.2430    -0.4010 h4         1 722       0.169000
     32 H8           3.5100    -1.7660    -0.1140 h1         1 722       0.017200
     33 H8A          3.3750    -0.7920    -1.5860 h1         1 722       0.017200
     34 H9           4.1130     1.2250    -0.2740 hc         1 722       0.059700
     35 H9A          4.2420     0.2210     1.1660 hc         1 722       0.059700
     36 H10          5.9180    -1.2330    -0.0680 hc         1 722       0.029700
     37 H10A         5.8590    -0.1070    -1.4080 hc         1 722       0.029700
     38 H11          6.6430     1.7280     0.1250 hc         1 722       0.040700
     39 H11A         6.7020     0.5800     1.4470 hc         1 722       0.040700
     40 H12          8.3780    -0.7860     0.1620 hc         1 722       0.032200
     41 H12A         8.3480     0.4060    -1.1200 hc         1 722       0.032200
     42 H13          9.1530     2.1500     0.4920 hc         1 722       0.036700
     43 H13A         9.1830     0.9520     1.7660 hc         1 722       0.036700
     44 H14         11.4670     1.2650     0.8090 hc         1 722       0.023367
     45 H14A        10.9000    -0.3710     0.4870 hc         1 722       0.023367
     46 H14B        10.8710     0.8390    -0.7920 hc         1 722       0.023367
@<TRIPOS>BOND
     1     1     2 1   
     2     2     3 1   
     3     2     4 1   
     4     2     5 1   
     5     5     6 1   
     6     5    10 1   
     7     5    25 1   
     8     6     7 1   
     9     6     8 1   
    10     6     9 1   
    11    10    11 1   
    12    10    26 1   
    13    10    27 1   
    14    11    12 1   
    15    11    16 2   
    16    12    13 ar  
    17    12    28 1   
    18    13    14 ar  
    19    13    17 1   
    20    14    15 ar  
    21    14    29 1   
    22    15    16 ar  
    23    15    30 1   
    24    16    31 1   
    25    17    18 1   
    26    18    19 1   
    27    18    32 1   
    28    18    33 1   
    29    19    20 1   
    30    19    34 1   
    31    19    35 1   
    32    20    21 1   
    33    20    36 1   
    34    20    37 1   
    35    21    22 1   
    36    21    38 1   
    37    21    39 1   
    38    22    23 1   
    39    22    40 1   
    40    22    41 1   
    41    23    24 1   
    42    23    42 1   
    43    23    43 1   
    44    24    44 1   
    45    24    45 1   
    46    24    46 1   
@<TRIPOS>SUBSTRUCTURE
     1 722         1 TEMP              0 ****  ****    0 ROOT
