@<TRIPOS>MOLECULE
723
   33    35     1     0     0
SMALL
No Charge or Current Charge


@<TRIPOS>ATOM
      1 N           -0.1640    -2.7680    -0.2870 ns         1 723      -0.381100
      2 Cl          -4.7710     0.9930    -0.2040 cl         1 723      -0.233000
      3 C1           1.4740    -0.9740    -0.1990 cc         1 723      -0.034400
      4 O1           1.9960    -3.3460    -0.2560 o          1 723      -0.528000
      5 C2           2.9710    -0.6360    -0.2060 c3         1 723      -0.198200
      6 O2           4.2060    -2.0380     1.2710 o          1 723      -0.722000
      7 C3           0.4240    -0.0450    -0.2860 cd         1 723      -0.035400
      8 O3           3.6500    -0.1020     2.0080 o          1 723      -0.722000
      9 C4           0.6630     1.4170    -0.2860 ca         1 723      -0.032800
     10 C5          -0.9900    -0.5080    -0.2920 ca         1 723      -0.063800
     11 C6          -1.2470    -1.8890    -0.3010 ca         1 723       0.086600
     12 C7           1.1670    -2.4480    -0.2380 c          1 723       0.564200
     13 C8           0.1790     2.2090    -1.3490 ca         1 723      -0.089500
     14 C9           0.4000     3.5970    -1.3670 ca         1 723      -0.123500
     15 C10          1.1050     4.2100    -0.3200 ca         1 723      -0.121000
     16 C11          1.5870     3.4330     0.7460 ca         1 723      -0.123500
     17 C12          1.3670     2.0450     0.7610 ca         1 723      -0.089500
     18 C13         -2.0980     0.3760    -0.2470 ca         1 723      -0.059000
     19 C14         -3.4120    -0.1220    -0.2540 ca         1 723       0.075000
     20 C15         -3.6460    -1.5050    -0.2920 ca         1 723      -0.083000
     21 C16         -2.5590    -2.3910    -0.3090 ca         1 723      -0.166000
     22 C17          3.6910    -0.9410     1.1230 c          1 723       0.735000
     23 HN          -0.3760    -3.7560    -0.3180 hn         1 723       0.312500
     24 H2           3.4240    -1.2380    -1.0020 hc         1 723       0.050700
     25 H2A          3.0690     0.4330    -0.4150 hc         1 723       0.050700
     26 H8          -0.3590     1.7420    -2.1720 ha         1 723       0.134000
     27 H9           0.0250     4.1960    -2.1940 ha         1 723       0.103000
     28 H10          1.2750     5.2840    -0.3320 ha         1 723       0.096000
     29 H11          2.1260     3.9060     1.5630 ha         1 723       0.103000
     30 H12          1.7180     1.4600     1.6050 ha         1 723       0.134000
     31 H13         -1.9630     1.4510    -0.1870 ha         1 723       0.136000
     32 H15         -4.6650    -1.8860    -0.2950 ha         1 723       0.115000
     33 H16         -2.7360    -3.4640    -0.3220 ha         1 723       0.111000
@<TRIPOS>BOND
     1     1    11 1   
     2     1    12 1   
     3     1    23 1   
     4     2    19 1   
     5     3     5 1   
     6     3     7 2   
     7     3    12 1   
     8     4    12 2   
     9     5    22 1   
    10     5    24 1   
    11     5    25 1   
    12     6    22 1   
    13     7     9 1   
    14     7    10 1   
    15     8    22 1   
    16     9    13 ar  
    17     9    17 ar  
    18    10    11 ar  
    19    10    18 ar  
    20    11    21 ar  
    21    13    14 ar  
    22    13    26 1   
    23    14    15 ar  
    24    14    27 1   
    25    15    16 ar  
    26    15    28 1   
    27    16    17 ar  
    28    16    29 1   
    29    17    30 1   
    30    18    19 ar  
    31    18    31 1   
    32    19    20 ar  
    33    20    21 ar  
    34    20    32 1   
    35    21    33 1   
@<TRIPOS>SUBSTRUCTURE
     1 723         1 TEMP              0 ****  ****    0 ROOT
