@<TRIPOS>MOLECULE
723
   33    35     1     0     0
SMALL
bcc


@<TRIPOS>ATOM
      1 N           -0.2100    -2.7580    -0.2490 ns         1 723      -0.448100
      2 CL          -4.6840     1.0270    -0.1170 cl         1 723      -0.141400
      3 C1           1.4030    -0.9810    -0.3050 cc         1 723      -0.034400
      4 O1           1.9780    -3.2820    -0.2790 o          1 723      -0.603500
      5 C2           2.8500    -0.6350    -0.3270 c3         1 723      -0.198200
      6 O2           4.7830    -0.8270     1.0320 o          1 723      -0.827300
      7 C3           0.3930    -0.0760    -0.2980 cd         1 723      -0.035400
      8 O3           2.7990    -0.9600     2.0410 o          1 723      -0.827300
      9 C4           0.6780     1.3800    -0.3100 ca         1 723      -0.032800
     10 C5          -0.9890    -0.5040    -0.2540 ca         1 723      -0.063800
     11 C6          -1.2590    -1.8800    -0.2350 ca         1 723       0.086600
     12 C7           1.1120    -2.4160    -0.2730 c          1 723       0.706700
     13 C8           0.3830     2.1530    -1.4310 ca         1 723      -0.107500
     14 C9           0.6450     3.5160    -1.4330 ca         1 723      -0.141500
     15 C10          1.1960     4.1210    -0.3110 ca         1 723      -0.139000
     16 C11          1.4910     3.3550     0.8100 ca         1 723      -0.141500
     17 C12          1.2360     1.9910     0.8100 ca         1 723      -0.107500
     18 C13         -2.0690     0.3870    -0.2100 ca         1 723      -0.077000
     19 C14         -3.3590    -0.0900    -0.1700 ca         1 723      -0.016600
     20 C15         -3.6250    -1.4590    -0.1660 ca         1 723      -0.101000
     21 C16         -2.5740    -2.3480    -0.1960 ca         1 723      -0.184000
     22 C17          3.5380    -0.8360     1.0470 c          1 723       0.945600
     23 HN          -0.4170    -3.7480    -0.2320 hn         1 723       0.312500
     24 H2           3.3680    -1.2410    -1.0740 hc         1 723       0.050700
     25 H2A          2.9910     0.4060    -0.6250 hc         1 723       0.050700
     26 H8          -0.0470     1.6860    -2.3090 ha         1 723       0.152000
     27 H9           0.4160     4.1050    -2.3110 ha         1 723       0.121000
     28 H10          1.3960     5.1840    -0.3110 ha         1 723       0.114000
     29 H11          1.9250     3.8190     1.6860 ha         1 723       0.121000
     30 H12          1.4840     1.3890     1.6750 ha         1 723       0.152000
     31 H13         -1.8900     1.4530    -0.2050 ha         1 723       0.154000
     32 H15         -4.6430    -1.8220    -0.1360 ha         1 723       0.133000
     33 H16         -2.7660    -3.4140    -0.1870 ha         1 723       0.129000
@<TRIPOS>BOND
     1     1    11 1   
     2     1    12 1   
     3     1    23 1   
     4     2    19 1   
     5     3     5 1   
     6     3     7 2   
     7     3    12 1   
     8     4    12 2   
     9     5    22 1   
    10     5    24 1   
    11     5    25 1   
    12     6    22 1   
    13     7     9 1   
    14     7    10 1   
    15     8    22 1   
    16     9    13 ar  
    17     9    17 ar  
    18    10    11 ar  
    19    10    18 ar  
    20    11    21 ar  
    21    13    14 ar  
    22    13    26 1   
    23    14    15 ar  
    24    14    27 1   
    25    15    16 ar  
    26    15    28 1   
    27    16    17 ar  
    28    16    29 1   
    29    17    30 1   
    30    18    19 ar  
    31    18    31 1   
    32    19    20 ar  
    33    20    21 ar  
    34    20    32 1   
    35    21    33 1   
@<TRIPOS>SUBSTRUCTURE
     1 723         1 TEMP              0 ****  ****    0 ROOT
