@<TRIPOS>MOLECULE
724
   35    37     1     0     0
SMALL
No Charge or Current Charge


@<TRIPOS>ATOM
      1 N1          -0.2410     0.3690     0.4920 n          1 724      -0.359100
      2 N2           0.3960    -0.8930     0.8070 na         1 724      -0.134100
      3 C3           0.7590     1.2730     0.0790 c          1 724       0.575600
      4 N4          -4.7010    -0.5100     0.2060 ns         1 724      -0.483500
      5 C5          -4.1080     0.6980     0.3110 c          1 724       0.565000
      6 C6          -2.6730     0.4410    -0.2620 c5         1 724       0.001400
      7 N7          -2.7690    -1.0010    -0.6090 ns         1 724      -0.507900
      8 C8          -3.9950    -1.5160    -0.3160 c          1 724       0.607000
      9 O9          -4.3720    -2.6570    -0.4980 o          1 724      -0.534000
     10 C11         -2.4240     1.3090    -1.5210 c3         1 724      -0.099100
     11 C12         -1.6260     0.7330     0.8480 c3         1 724       0.127000
     12 C13          2.0280     0.5120     0.1000 ca         1 724      -0.175600
     13 C14          1.7520    -0.7610     0.5530 ca         1 724      -0.065200
     14 C15          2.7600    -1.7240     0.6820 ca         1 724      -0.095000
     15 C16          4.0810    -1.3540     0.3450 ca         1 724      -0.145000
     16 C17          4.3700    -0.0370    -0.1140 ca         1 724       0.108100
     17 C18          3.3300     0.9090    -0.2380 ca         1 724      -0.050000
     18 O19          0.6060     2.4530    -0.2060 o          1 724      -0.530000
     19 O20          5.6470     0.3660    -0.4520 os         1 724      -0.339100
     20 C21          6.7800    -0.5170    -0.3630 c3         1 724       0.148900
     21 HN2         -0.1720    -1.7130     0.6200 hn         1 724       0.304000
     22 HN4         -5.6540    -0.6490     0.5040 hn         1 724       0.358500
     23 HN7         -2.0740    -1.5760    -1.0710 hn         1 724       0.335500
     24 H11         -2.4160     2.3780    -1.2740 hc         1 724       0.060033
     25 H11A        -1.4630     1.0660    -1.9890 hc         1 724       0.060033
     26 H11B        -3.2060     1.1480    -2.2730 hc         1 724       0.060033
     27 H12         -1.9060     0.1780     1.7530 h1         1 724       0.085700
     28 H12A        -1.6610     1.8010     1.1030 h1         1 724       0.085700
     29 H15          2.5330    -2.7280     1.0320 ha         1 724       0.128000
     30 H16          4.8660    -2.0970     0.4460 ha         1 724       0.121000
     31 H18          3.5350     1.9180    -0.5870 ha         1 724       0.149000
     32 H21          7.6930     0.0030    -0.6770 h1         1 724       0.042033
     33 H21A         6.9240    -0.8640     0.6680 h1         1 724       0.042033
     34 H21B         6.6460    -1.3910    -1.0140 h1         1 724       0.042033
     35 O10         -4.6220     1.7080     0.7660 o          1 724      -0.491000
@<TRIPOS>BOND
     1     1     2 1   
     2     1     3 1   
     3     1    11 1   
     4     2    13 1   
     5     2    21 1   
     6     3    12 1   
     7     3    18 2   
     8     4     5 1   
     9     4     8 1   
    10     4    22 1   
    11     5     6 1   
    12     5    35 2   
    13     6     7 1   
    14     6    10 1   
    15     6    11 1   
    16     7     8 1   
    17     7    23 1   
    18     8     9 2   
    19    10    24 1   
    20    10    25 1   
    21    10    26 1   
    22    11    27 1   
    23    11    28 1   
    24    12    13 ar  
    25    12    17 ar  
    26    13    14 ar  
    27    14    15 ar  
    28    14    29 1   
    29    15    16 ar  
    30    15    30 1   
    31    16    17 ar  
    32    16    19 1   
    33    17    31 1   
    34    19    20 1   
    35    20    32 1   
    36    20    33 1   
    37    20    34 1   
@<TRIPOS>SUBSTRUCTURE
     1 724         1 TEMP              0 ****  ****    0 ROOT
