@<TRIPOS>MOLECULE
724
   35    37     1     0     0
SMALL
bcc


@<TRIPOS>ATOM
      1 N1          -0.2100     0.4610     0.4450 n          1 724      -0.426100
      2 N2           0.3160    -0.7650     0.8540 na         1 724      -0.083800
      3 C3           0.7610     1.3530     0.0830 c          1 724       0.718100
      4 N4          -4.5640    -0.6230     0.2840 ns         1 724      -0.617500
      5 C5          -3.9740     0.6000     0.3370 c          1 724       0.707500
      6 C6          -2.5790     0.4300    -0.2580 c5         1 724       0.001400
      7 N7          -2.5560    -0.9930    -0.5380 ns         1 724      -0.574900
      8 C8          -3.7510    -1.5910    -0.2970 c          1 724       0.816500
      9 O9          -4.0740    -2.7320    -0.5240 o          1 724      -0.609500
     10 C11         -2.4170     1.2650    -1.5220 c3         1 724      -0.099100
     11 C12         -1.5520     0.8050     0.8240 c3         1 724       0.127000
     12 C13          1.9990     0.5800     0.1240 ca         1 724      -0.175600
     13 C14          1.6690    -0.6990     0.5500 ca         1 724      -0.065200
     14 C15          2.6420    -1.6830     0.6450 ca         1 724      -0.113000
     15 C16          3.9440    -1.3380     0.3230 ca         1 724      -0.163000
     16 C17          4.2860    -0.0360    -0.0820 ca         1 724       0.108100
     17 C18          3.3010     0.9380    -0.1850 ca         1 724      -0.068000
     18 O19          0.5740     2.5300    -0.1840 o          1 724      -0.605500
     19 O20          5.5430     0.3450    -0.3940 os         1 724      -0.315900
     20 C21          6.5790    -0.6140    -0.3380 c3         1 724       0.125700
     21 HN2         -0.1890    -1.5500     0.4570 hn         1 724       0.253700
     22 HN4         -5.5000    -0.8210     0.6120 hn         1 724       0.358500
     23 HN7         -1.9500    -1.3830    -1.2440 hn         1 724       0.335500
     24 H11         -2.4960     2.3260    -1.2960 hc         1 724       0.060033
     25 H11A        -1.4390     1.0840    -1.9680 hc         1 724       0.060033
     26 H11B        -3.1780     1.0080    -2.2590 hc         1 724       0.060033
     27 H12         -1.7860     0.2960     1.7600 h1         1 724       0.085700
     28 H12A        -1.5980     1.8790     1.0060 h1         1 724       0.085700
     29 H15          2.4050    -2.6910     0.9580 ha         1 724       0.146000
     30 H16          4.7010    -2.1070     0.3940 ha         1 724       0.139000
     31 H18          3.5470     1.9430    -0.5040 ha         1 724       0.167000
     32 H21          7.4910    -0.1000    -0.6310 h1         1 724       0.042033
     33 H21A         6.7130    -1.0160     0.6700 h1         1 724       0.042033
     34 H21B         6.4070    -1.4440    -1.0290 h1         1 724       0.042033
     35 O10         -4.4400     1.6200     0.7790 o          1 724      -0.566500
@<TRIPOS>BOND
     1     1     2 1   
     2     1     3 1   
     3     1    11 1   
     4     2    13 1   
     5     2    21 1   
     6     3    12 1   
     7     3    18 2   
     8     4     5 1   
     9     4     8 1   
    10     4    22 1   
    11     5     6 1   
    12     5    35 2   
    13     6     7 1   
    14     6    10 1   
    15     6    11 1   
    16     7     8 1   
    17     7    23 1   
    18     8     9 2   
    19    10    24 1   
    20    10    25 1   
    21    10    26 1   
    22    11    27 1   
    23    11    28 1   
    24    12    13 ar  
    25    12    17 ar  
    26    13    14 ar  
    27    14    15 ar  
    28    14    29 1   
    29    15    16 ar  
    30    15    30 1   
    31    16    17 ar  
    32    16    19 1   
    33    17    31 1   
    34    19    20 1   
    35    20    32 1   
    36    20    33 1   
    37    20    34 1   
@<TRIPOS>SUBSTRUCTURE
     1 724         1 TEMP              0 ****  ****    0 ROOT
