@<TRIPOS>MOLECULE
725
   56    59     1     0     0
SMALL
bcc


@<TRIPOS>ATOM
      1 C1           1.9060     3.5840     0.1590 cc         1 725       0.669700
      2 C2           1.7880     1.3910     0.4080 ca         1 725      -0.030200
      3 N3           2.7130    -4.4150     0.5360 nv         1 725      -0.920800
      4 C4           0.0580    -0.2870     1.1370 c3         1 725      -0.004100
      5 C5          -0.8580    -0.6260    -0.0410 c3         1 725      -0.087400
      6 C6          -2.2890    -0.9190     0.3680 c5         1 725       0.146100
      7 C10         -6.5890    -0.9700     0.4950 c3         1 725       0.115700
      8 C13          2.4160    -0.8870     0.3900 ca         1 725       0.225400
      9 C14          2.9900    -3.1000     0.3740 cc         1 725       0.705800
     10 C15          4.6650    -1.5240    -0.3870 c          1 725       0.734100
     11 C16          3.6790    -0.4930    -0.1140 ca         1 725      -0.234600
     12 C17          4.0010     0.8470    -0.3620 ca         1 725      -0.009000
     13 C18          3.0450     1.8010    -0.0980 ca         1 725       0.077400
     14 O4           5.7900    -1.3330    -0.8230 o          1 725      -0.620500
     15 N4           4.2320    -2.8020    -0.1150 ns         1 725      -0.520400
     16 N2           2.1000    -2.2000     0.6280 nd         1 725      -0.707100
     17 N1           1.0810     2.5610     0.5510 na         1 725      -0.311300
     18 N5           3.0830     3.1700    -0.2430 nd         1 725      -0.647100
     19 N            1.4960     4.8590     0.1830 nu         1 725      -0.863200
     20 C            0.2090     5.2810     0.6760 c3         1 725       0.222100
     21 C3           1.4320     0.0840     0.6650 ca         1 725      -0.097300
     22 C11         -3.1830    -1.3160    -0.8160 c5         1 725       0.124100
     23 O3          -3.2600    -2.7050    -0.9060 os         1 725      -0.379600
     24 C12         -3.9130    -3.1580    -2.0670 c3         1 725       0.123700
     25 C9          -4.5030    -0.5930    -0.5160 c5         1 725       0.086100
     26 O2          -5.2440    -1.3690     0.3810 os         1 725      -0.374600
     27 C7          -3.9640     0.6710     0.1550 c5         1 725       0.296900
     28 O           -2.9060     0.2260     0.9540 os         1 725      -0.424600
     29 O1          -3.5510     1.5360    -0.8570 os         1 725      -0.432600
     30 C8          -3.0140     2.7560    -0.4000 c3         1 725       0.135700
     31 H1           3.4720    -5.0630     0.6730 hn         1 725       0.429800
     32 H2           1.8860    -4.6230     1.0720 hn         1 725       0.429800
     33 H3          -0.3750     0.5310     1.7190 hc         1 725       0.051700
     34 H4           0.1170    -1.1450     1.8080 hc         1 725       0.051700
     35 H5          -0.8510     0.1920    -0.7690 hc         1 725       0.056200
     36 H6          -0.4620    -1.5070    -0.5540 hc         1 725       0.056200
     37 H7          -2.2990    -1.7230     1.1150 h1         1 725       0.085700
     38 H8          -6.7000     0.0570     0.8590 h1         1 725       0.031033
     39 H9          -7.1180    -1.0480    -0.4610 h1         1 725       0.031033
     40 H10         -7.0710    -1.6360     1.2110 h1         1 725       0.031033
     41 H11          4.9740     1.1180    -0.7510 ha         1 725       0.166000
     42 H12          4.8830    -3.5520    -0.3130 hn         1 725       0.323500
     43 H13          0.1770     2.6570     0.9830 hn         1 725       0.307700
     44 H15          2.1850     5.5550    -0.0430 hn         1 725       0.465800
     45 H16         -0.6080     4.8440     0.0980 h1         1 725       0.037033
     46 H17          0.0610     5.0360     1.7310 h1         1 725       0.037033
     47 H18          0.1390     6.3590     0.5720 h1         1 725       0.037033
     48 H19         -2.7760    -0.8960    -1.7480 h1         1 725       0.059700
     49 H20         -4.9790    -2.9040    -2.0750 h1         1 725       0.030700
     50 H21         -3.4590    -2.7480    -2.9770 h1         1 725       0.030700
     51 H22         -3.8220    -4.2430    -2.0960 h1         1 725       0.030700
     52 H23         -5.0810    -0.3600    -1.4190 h1         1 725       0.065700
     53 H24         -4.6830     1.1730     0.8190 h2         1 725       0.071700
     54 H25         -2.8850     3.4050    -1.2650 h1         1 725       0.028033
     55 H26         -3.6780     3.2530     0.3140 h1         1 725       0.028033
     56 H27         -2.0380     2.6230     0.0760 h1         1 725       0.028033
@<TRIPOS>BOND
     1     1    17 1   
     2     1    18 2   
     3     1    19 1   
     4     2    13 ar  
     5     2    17 1   
     6     2    21 ar  
     7     3     9 1   
     8     3    31 1   
     9     3    32 1   
    10     4     5 1   
    11     4    21 1   
    12     4    33 1   
    13     4    34 1   
    14     5     6 1   
    15     5    35 1   
    16     5    36 1   
    17     6    22 1   
    18     6    28 1   
    19     6    37 1   
    20     7    26 1   
    21     7    38 1   
    22     7    39 1   
    23     7    40 1   
    24     8    11 ar  
    25     8    16 1   
    26     8    21 ar  
    27     9    15 1   
    28     9    16 2   
    29    10    11 1   
    30    10    14 2   
    31    10    15 1   
    32    11    12 ar  
    33    12    13 ar  
    34    12    41 1   
    35    13    18 1   
    36    15    42 1   
    37    17    43 1   
    38    19    20 1   
    39    19    44 1   
    40    20    45 1   
    41    20    46 1   
    42    20    47 1   
    43    22    23 1   
    44    22    25 1   
    45    22    48 1   
    46    23    24 1   
    47    24    49 1   
    48    24    50 1   
    49    24    51 1   
    50    25    26 1   
    51    25    27 1   
    52    25    52 1   
    53    27    28 1   
    54    27    29 1   
    55    27    53 1   
    56    29    30 1   
    57    30    54 1   
    58    30    55 1   
    59    30    56 1   
@<TRIPOS>SUBSTRUCTURE
     1 725         1 TEMP              0 ****  ****    0 ROOT
