@<TRIPOS>MOLECULE
725
   56    59     1     0     0
SMALL
No Charge or Current Charge


@<TRIPOS>ATOM
      1 C1           1.8660     3.6130     0.2710 cc         1 725       0.669700
      2 C2           1.8040     1.4270     0.4330 ca         1 725      -0.030200
      3 N3           2.9380    -4.3550     0.3960 nv         1 725      -1.031200
      4 C4           0.0680    -0.3150     1.0960 c3         1 725      -0.004100
      5 C5          -0.8710    -0.6390    -0.0870 c3         1 725      -0.087400
      6 C6          -2.2940    -1.0870     0.3330 c5         1 725       0.169300
      7 C10         -6.7930    -0.6770     0.3020 c3         1 725       0.138900
      8 C13          2.4820    -0.8940     0.3440 ca         1 725       0.225400
      9 C14          3.1680    -3.0630     0.2400 cc         1 725       0.705800
     10 C15          4.7980    -1.4680    -0.3960 c          1 725       0.591600
     11 C16          3.7570    -0.4540    -0.1050 ca         1 725      -0.234600
     12 C17          4.0370     0.9230    -0.2810 ca         1 725       0.009000
     13 C18          3.0280     1.8490    -0.0020 ca         1 725       0.077400
     14 O4           5.9210    -1.2020    -0.7930 o          1 725      -0.545000
     15 N4           4.3970    -2.7350    -0.1870 ns         1 725      -0.453400
     16 N2           2.1760    -2.2600     0.5220 nd         1 725      -0.707100
     17 N1           1.0580     2.5530     0.6100 na         1 725      -0.361600
     18 N5           3.0850     3.2400    -0.1100 nd         1 725      -0.647100
     19 N            1.4950     4.9080     0.3160 nu         1 725      -0.918400
     20 C            0.1530     5.4350     0.6000 c3         1 725       0.222100
     21 C3           1.4740     0.0740     0.6240 ca         1 725      -0.097300
     22 C11         -3.2180    -1.4740    -0.8760 c5         1 725       0.147300
     23 O3          -3.5150    -2.8980    -0.7840 os         1 725      -0.426000
     24 C12         -4.2710    -3.4810    -1.8610 c3         1 725       0.146900
     25 C9          -4.5090    -0.6030    -0.6650 c5         1 725       0.109300
     26 O2          -5.5290    -1.3300     0.0900 os         1 725      -0.421000
     27 C7          -3.9510     0.5800     0.1840 c5         1 725       0.343300
     28 O           -2.9670    -0.0200     1.0490 os         1 725      -0.471000
     29 O1          -3.2930     1.4940    -0.7200 os         1 725      -0.479000
     30 C8          -2.7720     2.7000    -0.1400 c3         1 725       0.158900
     31 H1           3.7290    -4.9320     0.6530 hn         1 725       0.485000
     32 H2           2.0750    -4.5590     0.8840 hn         1 725       0.485000
     33 H3          -0.3710     0.4930     1.6930 hc         1 725       0.051700
     34 H4           0.1120    -1.1790     1.7710 hc         1 725       0.051700
     35 H5          -0.9280     0.2350    -0.7460 hc         1 725       0.056200
     36 H6          -0.4120    -1.4380    -0.6810 hc         1 725       0.056200
     37 H7          -2.1920    -1.9390     1.0190 h1         1 725       0.085700
     38 H8          -6.6780     0.2240     0.9160 h1         1 725       0.031033
     39 H9          -7.2480    -0.3920    -0.6550 h1         1 725       0.031033
     40 H10         -7.4860    -1.3520     0.8200 h1         1 725       0.031033
     41 H11          5.0100     1.2650    -0.6270 ha         1 725       0.148000
     42 H12          5.0620    -3.4610    -0.3930 hn         1 725       0.323500
     43 H13          0.1130     2.6230     0.9460 hn         1 725       0.358000
     44 H15          2.2180     5.5420    -0.0210 hn         1 725       0.521000
     45 H16         -0.5680     5.0690    -0.1440 h1         1 725       0.037033
     46 H17         -0.1810     5.1190     1.5970 h1         1 725       0.037033
     47 H18          0.1580     6.5330     0.5670 h1         1 725       0.037033
     48 H19         -2.7340    -1.2550    -1.8380 h1         1 725       0.059700
     49 H20         -5.2610    -3.0150    -1.9490 h1         1 725       0.030700
     50 H21         -3.7440    -3.3580    -2.8160 h1         1 725       0.030700
     51 H22         -4.4160    -4.5540    -1.6860 h1         1 725       0.030700
     52 H23         -4.9340    -0.2650    -1.6200 h1         1 725       0.065700
     53 H24         -4.7290     1.1000     0.7570 h2         1 725       0.071700
     54 H25         -2.2860     3.3130    -0.9090 h1         1 725       0.028033
     55 H26         -3.5780     3.2930     0.3130 h1         1 725       0.028033
     56 H27         -2.0310     2.4720     0.6360 h1         1 725       0.028033
@<TRIPOS>BOND
     1     1    17 1   
     2     1    18 2   
     3     1    19 1   
     4     2    13 ar  
     5     2    17 1   
     6     2    21 ar  
     7     3     9 1   
     8     3    31 1   
     9     3    32 1   
    10     4     5 1   
    11     4    21 1   
    12     4    33 1   
    13     4    34 1   
    14     5     6 1   
    15     5    35 1   
    16     5    36 1   
    17     6    22 1   
    18     6    28 1   
    19     6    37 1   
    20     7    26 1   
    21     7    38 1   
    22     7    39 1   
    23     7    40 1   
    24     8    11 ar  
    25     8    16 1   
    26     8    21 ar  
    27     9    15 1   
    28     9    16 2   
    29    10    11 1   
    30    10    14 2   
    31    10    15 1   
    32    11    12 ar  
    33    12    13 ar  
    34    12    41 1   
    35    13    18 1   
    36    15    42 1   
    37    17    43 1   
    38    19    20 1   
    39    19    44 1   
    40    20    45 1   
    41    20    46 1   
    42    20    47 1   
    43    22    23 1   
    44    22    25 1   
    45    22    48 1   
    46    23    24 1   
    47    24    49 1   
    48    24    50 1   
    49    24    51 1   
    50    25    26 1   
    51    25    27 1   
    52    25    52 1   
    53    27    28 1   
    54    27    29 1   
    55    27    53 1   
    56    29    30 1   
    57    30    54 1   
    58    30    55 1   
    59    30    56 1   
@<TRIPOS>SUBSTRUCTURE
     1 725         1 TEMP              0 ****  ****    0 ROOT
