@<TRIPOS>MOLECULE
726
   63    66     1     0     0
SMALL
No Charge or Current Charge


@<TRIPOS>ATOM
      1 O           -6.2070     2.2860    -0.2300 o          1 726      -0.555000
      2 C1          -3.1210    -3.3720    -0.3560 cc         1 726       0.678700
      3 C2          -3.9930    -1.3700    -0.2400 ca         1 726      -0.116200
      4 C5          -5.0280     2.2360     0.0870 c          1 726       0.592600
      5 C8          -2.0630    -0.1230     0.5010 ca         1 726      -0.058300
      6 N1          -4.2850    -2.6650    -0.5470 na         1 726      -0.357600
      7 C3          -4.8050    -0.2390    -0.2670 ca         1 726      -0.030000
      8 N2          -4.3450     3.3330     0.4590 ns         1 726      -0.453400
      9 C4          -4.2180     0.9910     0.1020 ca         1 726      -0.228600
     10 N4          -2.2330     2.2870     0.8560 nc         1 726      -0.701100
     11 C6          -3.0530     3.3050     0.8040 cd         1 726       0.704800
     12 N5          -2.1090    -2.6120     0.0520 nd         1 726      -0.661100
     13 C7          -2.8490     1.0700     0.4870 ca         1 726       0.215400
     14 C9          -0.5810    -0.1120     0.8970 c3         1 726      -0.005100
     15 C13          2.9830    -0.1550     3.3900 c3         1 726       0.147900
     16 C10          0.3440     0.1800    -0.3070 c3         1 726      -0.064400
     17 C11          1.8520     0.3140     0.0510 c6         1 726       0.159300
     18 C12          3.6010    -0.9460     1.1580 c6         1 726       0.350300
     19 C20         -2.6770    -1.3340     0.1240 ca         1 726       0.159400
     20 N           -2.9830    -4.6990    -0.5520 nu         1 726      -0.904400
     21 C           -3.9980    -5.6310    -1.0640 c3         1 726       0.213100
     22 C18          2.7380     0.6460    -1.1860 c6         1 726       0.132300
     23 O5           2.3330     1.9510    -1.6920 os         1 726      -0.452000
     24 C19          2.8370     2.3830    -2.9700 c3         1 726       0.150900
     25 C16          4.2690     0.5780    -0.8260 c6         1 726       0.159300
     26 O4           5.0440     0.6490    -2.0610 os         1 726      -0.457000
     27 C17          6.4610     0.8900    -1.9740 c3         1 726       0.153900
     28 C14          4.6110    -0.7230    -0.0150 c6         1 726       0.141300
     29 O3           5.9850    -0.7130     0.4690 os         1 726      -0.432000
     30 C15          6.4870    -1.9170     1.0760 c3         1 726       0.146900
     31 O1           2.2530    -0.9340     0.6560 os         1 726      -0.474000
     32 O2           3.7340     0.0620     2.1830 os         1 726      -0.464000
     33 H1          -5.1640    -3.0520    -0.8510 hn         1 726       0.357000
     34 H2          -5.8500    -0.3080    -0.5650 ha         1 726       0.135000
     35 H3          -1.5990     4.3640     1.5750 hn         1 726       0.487500
     36 H4          -3.1180     5.1500     1.5780 hn         1 726       0.487500
     37 H5          -4.8480     4.2030     0.4440 hn         1 726       0.323500
     38 H7          -0.3930     0.6270     1.6850 hc         1 726       0.059700
     39 H8          -0.3010    -1.0760     1.3390 hc         1 726       0.059700
     40 H9           3.2690    -1.1050     3.8600 h1         1 726       0.032367
     41 H10          3.1740     0.6530     4.1070 h1         1 726       0.032367
     42 H11          1.9050    -0.1800     3.1840 h1         1 726       0.032367
     43 H12          0.2090    -0.6110    -1.0550 hc         1 726       0.057700
     44 H13          0.0000     1.1080    -0.7800 hc         1 726       0.057700
     45 H14          1.9510     1.1230     0.7900 h1         1 726       0.058700
     46 H15          3.7970    -1.9340     1.6020 h2         1 726       0.063700
     47 H16         -2.0340    -5.0310    -0.3890 hn         1 726       0.518000
     48 H17         -4.3390    -5.3190    -2.0600 h1         1 726       0.039700
     49 H18         -3.5830    -6.6450    -1.1420 h1         1 726       0.039700
     50 H19         -4.8650    -5.6620    -0.3910 h1         1 726       0.039700
     51 H20          2.5300    -0.1060    -1.9600 h1         1 726       0.057700
     52 H21          2.2790     3.2620    -3.3180 h1         1 726       0.031033
     53 H22          3.8940     2.6710    -2.9040 h1         1 726       0.031033
     54 H23          2.7300     1.5920    -3.7230 h1         1 726       0.031033
     55 H24          4.5090     1.4510    -0.2020 h1         1 726       0.075700
     56 H25          6.8560     1.1670    -2.9600 h1         1 726       0.030367
     57 H26          6.6790     1.7100    -1.2780 h1         1 726       0.030367
     58 H27          7.0000    -0.0070    -1.6480 h1         1 726       0.030367
     59 H28          4.5050    -1.5750    -0.7020 h1         1 726       0.055700
     60 H29          5.9570    -2.1420     2.0100 h1         1 726       0.028700
     61 H30          6.3760    -2.7720     0.3950 h1         1 726       0.028700
     62 H31          7.5520    -1.8060     1.3120 h1         1 726       0.028700
     63 N3          -2.5130     4.4610     1.1510 nv         1 726      -1.034200
@<TRIPOS>BOND
     1     1     4 2   
     2     2     6 1   
     3     2    12 2   
     4     2    20 1   
     5     3     6 1   
     6     3     7 ar  
     7     3    19 ar  
     8     4     8 1   
     9     4     9 1   
    10     5    13 ar  
    11     5    14 1   
    12     5    19 ar  
    13     6    33 1   
    14     7     9 ar  
    15     7    34 1   
    16     8    11 1   
    17     8    37 1   
    18     9    13 ar  
    19    10    11 2   
    20    10    13 1   
    21    11    63 1   
    22    12    19 1   
    23    14    16 1   
    24    14    38 1   
    25    14    39 1   
    26    15    32 1   
    27    15    40 1   
    28    15    41 1   
    29    15    42 1   
    30    16    17 1   
    31    16    43 1   
    32    16    44 1   
    33    17    22 1   
    34    17    31 1   
    35    17    45 1   
    36    18    28 1   
    37    18    31 1   
    38    18    32 1   
    39    18    46 1   
    40    20    21 1   
    41    20    47 1   
    42    21    48 1   
    43    21    49 1   
    44    21    50 1   
    45    22    23 1   
    46    22    25 1   
    47    22    51 1   
    48    23    24 1   
    49    24    52 1   
    50    24    53 1   
    51    24    54 1   
    52    25    26 1   
    53    25    28 1   
    54    25    55 1   
    55    26    27 1   
    56    27    56 1   
    57    27    57 1   
    58    27    58 1   
    59    28    29 1   
    60    28    59 1   
    61    29    30 1   
    62    30    60 1   
    63    30    61 1   
    64    30    62 1   
    65    35    63 1   
    66    36    63 1   
@<TRIPOS>SUBSTRUCTURE
     1 726         1 TEMP              0 ****  ****    0 ROOT
