@<TRIPOS>MOLECULE
726
   63    66     1     0     0
SMALL
bcc


@<TRIPOS>ATOM
      1 O           -5.7920     2.4110    -0.7340 o          1 726      -0.630500
      2 C1          -3.1670    -3.4140    -0.2070 cc         1 726       0.678700
      3 C2          -3.9360    -1.3540    -0.3300 ca         1 726      -0.116200
      4 C5          -4.6380     2.2660    -0.3550 c          1 726       0.735100
      5 C8          -1.9100    -0.2120     0.4130 ca         1 726      -0.058300
      6 N1          -4.2680    -2.6790    -0.5210 na         1 726      -0.307300
      7 C3          -4.6370    -0.1920    -0.4900 ca         1 726      -0.048000
      8 N2          -3.8640     3.3630    -0.0480 ns         1 726      -0.520400
      9 C4          -3.9560     0.9980    -0.1910 ca         1 726      -0.228600
     10 N4          -1.9510     2.1630     0.5570 nc         1 726      -0.701100
     11 C6          -2.5710     3.2830     0.3960 cd         1 726       0.704800
     12 N5          -2.1430    -2.6770     0.1760 nd         1 726      -0.661100
     13 C7          -2.6120     0.9980     0.2580 ca         1 726       0.215400
     14 C9          -0.4750    -0.2310     0.8470 c3         1 726      -0.005100
     15 C13          3.0440    -0.8700     3.3000 c3         1 726       0.124700
     16 C10          0.4700     0.1200    -0.3050 c3         1 726      -0.064400
     17 C11          1.9220     0.1980     0.1270 c6         1 726       0.136100
     18 C12          3.6200    -1.2040     1.0450 c6         1 726       0.303900
     19 C20         -2.5890    -1.3850     0.1110 ca         1 726       0.159400
     20 N           -3.1510    -4.7490    -0.3080 nu         1 726      -0.849200
     21 C           -4.3330    -5.5380    -0.5560 c3         1 726       0.213100
     22 C18          2.8510     0.6910    -0.9840 c6         1 726       0.109100
     23 O5           2.5190     2.0160    -1.3210 os         1 726      -0.405600
     24 C19          2.1860     2.2220    -2.6720 c3         1 726       0.127700
     25 C16          4.3050     0.6380    -0.5270 c6         1 726       0.136100
     26 O4           5.1420     0.9510    -1.6160 os         1 726      -0.410600
     27 C17          5.9990     2.0460    -1.4090 c3         1 726       0.130700
     28 C14          4.6440    -0.7530    -0.0050 c6         1 726       0.118100
     29 O3           5.9540    -0.7280     0.4860 os         1 726      -0.385600
     30 C15          6.5260    -1.9980     0.6890 c3         1 726       0.123700
     31 O1           2.3230    -1.1050     0.5300 os         1 726      -0.427600
     32 O2           3.8130    -0.4500     2.1930 os         1 726      -0.417600
     33 H1          -5.1570    -3.0290    -0.8400 hn         1 726       0.306700
     34 H2          -5.6620    -0.1730    -0.8340 ha         1 726       0.153000
     35 H3          -1.0760     4.4070     1.1220 hn         1 726       0.432300
     36 H4          -2.4930     5.2850     0.8060 hn         1 726       0.432300
     37 H5          -4.2900     4.2710    -0.1790 hn         1 726       0.323500
     38 H7          -0.3260     0.4910     1.6530 hc         1 726       0.059700
     39 H8          -0.2290    -1.2170     1.2420 hc         1 726       0.059700
     40 H9           3.1380    -1.9480     3.4690 h1         1 726       0.032367
     41 H10          3.4220    -0.3480     4.1770 h1         1 726       0.032367
     42 H11          1.9820    -0.6330     3.1870 h1         1 726       0.032367
     43 H12          0.3640    -0.6100    -1.1140 hc         1 726       0.057700
     44 H13          0.1790     1.0920    -0.7060 hc         1 726       0.057700
     45 H14          1.9950     0.8950     0.9750 h1         1 726       0.058700
     46 H15          3.7430    -2.2750     1.2660 h2         1 726       0.063700
     47 H16         -2.3410    -5.2080     0.0740 hn         1 726       0.462800
     48 H17         -4.7990    -5.2680    -1.5050 h1         1 726       0.039700
     49 H18         -4.0400    -6.5820    -0.6210 h1         1 726       0.039700
     50 H19         -5.0790    -5.4410     0.2370 h1         1 726       0.039700
     51 H20          2.7360     0.0220    -1.8510 h1         1 726       0.057700
     52 H21          1.9310     3.2750    -2.7910 h1         1 726       0.031033
     53 H22          3.0180     1.9910    -3.3430 h1         1 726       0.031033
     54 H23          1.3200     1.6260    -2.9820 h1         1 726       0.031033
     55 H24          4.4390     1.3690     0.2830 h1         1 726       0.075700
     56 H25          6.5860     2.1800    -2.3180 h1         1 726       0.030367
     57 H26          5.4480     2.9730    -1.2200 h1         1 726       0.030367
     58 H27          6.6910     1.8830    -0.5770 h1         1 726       0.030367
     59 H28          4.5630    -1.4640    -0.8450 h1         1 726       0.055700
     60 H29          6.0840    -2.5350     1.5350 h1         1 726       0.028700
     61 H30          6.4360    -2.6320    -0.2000 h1         1 726       0.028700
     62 H31          7.5840    -1.8520     0.9010 h1         1 726       0.028700
     63 N3          -1.9450     4.4610     0.6170 nv         1 726      -0.923800
@<TRIPOS>BOND
     1     1     4 2   
     2     2     6 1   
     3     2    12 2   
     4     2    20 1   
     5     3     6 1   
     6     3     7 ar  
     7     3    19 ar  
     8     4     8 1   
     9     4     9 1   
    10     5    13 ar  
    11     5    14 1   
    12     5    19 ar  
    13     6    33 1   
    14     7     9 ar  
    15     7    34 1   
    16     8    11 1   
    17     8    37 1   
    18     9    13 ar  
    19    10    11 2   
    20    10    13 1   
    21    11    63 1   
    22    12    19 1   
    23    14    16 1   
    24    14    38 1   
    25    14    39 1   
    26    15    32 1   
    27    15    40 1   
    28    15    41 1   
    29    15    42 1   
    30    16    17 1   
    31    16    43 1   
    32    16    44 1   
    33    17    22 1   
    34    17    31 1   
    35    17    45 1   
    36    18    28 1   
    37    18    31 1   
    38    18    32 1   
    39    18    46 1   
    40    20    21 1   
    41    20    47 1   
    42    21    48 1   
    43    21    49 1   
    44    21    50 1   
    45    22    23 1   
    46    22    25 1   
    47    22    51 1   
    48    23    24 1   
    49    24    52 1   
    50    24    53 1   
    51    24    54 1   
    52    25    26 1   
    53    25    28 1   
    54    25    55 1   
    55    26    27 1   
    56    27    56 1   
    57    27    57 1   
    58    27    58 1   
    59    28    29 1   
    60    28    59 1   
    61    29    30 1   
    62    30    60 1   
    63    30    61 1   
    64    30    62 1   
    65    35    63 1   
    66    36    63 1   
@<TRIPOS>SUBSTRUCTURE
     1 726         1 TEMP              0 ****  ****    0 ROOT
