@<TRIPOS>MOLECULE
727
   42    45     1     0     0
SMALL
bcc


@<TRIPOS>ATOM
      1 N1           0.3000     1.3250    -0.5670 n          1 727      -0.410100
      2 N2           0.8860     1.3800     0.6980 na         1 727      -0.100800
      3 C3           1.1020     0.6980    -1.4840 c          1 727       0.717100
      4 N4          -0.9620    -1.0210     1.8780 ns         1 727      -0.605500
      5 C5          -1.5620     0.1590     1.5770 c          1 727       0.730500
      6 C6          -1.7910     0.1450     0.0550 c5         1 727       0.060700
      7 N7          -1.1410    -1.0820    -0.3070 ns         1 727      -0.587900
      8 C8          -0.6560    -1.7730     0.7490 c          1 727       0.834500
      9 O9          -0.0730    -2.8320     0.7460 o          1 727      -0.617500
     10 C11         -3.2900     0.1470    -0.2070 ca         1 727      -0.106300
     11 C12         -1.1290     1.3590    -0.6370 c3         1 727       0.115000
     12 C13          2.3680     0.4930    -0.7850 ca         1 727      -0.173600
     13 C14          2.1940     0.9460     0.5140 ca         1 727      -0.066200
     14 C15          3.2410     0.9030     1.4220 ca         1 727      -0.109000
     15 C16          4.4490     0.3780     0.9910 ca         1 727      -0.163000
     16 C17          4.6220    -0.1000    -0.3200 ca         1 727       0.112100
     17 C18          3.5670    -0.0450    -1.2220 ca         1 727      -0.066000
     18 O19          0.7690     0.3860    -2.6170 o          1 727      -0.605500
     19 O20          5.7790    -0.6190    -0.7810 os         1 727      -0.314900
     20 C21          6.8910    -0.6850     0.0880 c3         1 727       0.125700
     21 C22         -3.9380    -0.9930    -0.6710 ca         1 727      -0.106500
     22 C23         -5.3080    -0.9830    -0.9000 ca         1 727      -0.128000
     23 C24         -6.0480     0.1650    -0.6640 ca         1 727      -0.115000
     24 C25         -5.4090     1.3050    -0.1950 ca         1 727      -0.128000
     25 C26         -4.0410     1.2970     0.0330 ca         1 727      -0.106500
     26 HN2          0.7870     2.3010     1.1130 hn         1 727       0.255700
     27 HN4         -0.6760    -1.2930     2.8080 hn         1 727       0.355500
     28 HN7         -1.0550    -1.4200    -1.2520 hn         1 727       0.360500
     29 H12         -1.4950     2.2880    -0.2000 h1         1 727       0.084700
     30 H12A        -1.4070     1.3650    -1.6900 h1         1 727       0.084700
     31 H15          3.1330     1.2600     2.4370 ha         1 727       0.146000
     32 H16          5.2640     0.3410     1.7000 ha         1 727       0.139000
     33 H18          3.6860    -0.4040    -2.2370 ha         1 727       0.168000
     34 H21          7.1890     0.3020     0.4510 h1         1 727       0.042033
     35 H21A         6.7030    -1.3340     0.9480 h1         1 727       0.042033
     36 H21B         7.7100    -1.1060    -0.4910 h1         1 727       0.042033
     37 H22         -3.3810    -1.9010    -0.8590 ha         1 727       0.138500
     38 H23         -5.7930    -1.8790    -1.2630 ha         1 727       0.135000
     39 H24         -7.1160     0.1730    -0.8410 ha         1 727       0.134000
     40 H25         -5.9760     2.2060    -0.0010 ha         1 727       0.135000
     41 H26         -3.5730     2.1960     0.4100 ha         1 727       0.138500
     42 O10         -1.8970     1.0300     2.3390 o          1 727      -0.586500
@<TRIPOS>BOND
     1     1     2 1   
     2     1     3 1   
     3     1    11 1   
     4     2    13 1   
     5     2    26 1   
     6     3    12 1   
     7     3    18 2   
     8     4     5 1   
     9     4     8 1   
    10     4    27 1   
    11     5     6 1   
    12     5    42 2   
    13     6     7 1   
    14     6    10 1   
    15     6    11 1   
    16     7     8 1   
    17     7    28 1   
    18     8     9 2   
    19    10    21 ar  
    20    10    25 ar  
    21    11    29 1   
    22    11    30 1   
    23    12    13 ar  
    24    12    17 ar  
    25    13    14 ar  
    26    14    15 ar  
    27    14    31 1   
    28    15    16 ar  
    29    15    32 1   
    30    16    17 ar  
    31    16    19 1   
    32    17    33 1   
    33    19    20 1   
    34    20    34 1   
    35    20    35 1   
    36    20    36 1   
    37    21    22 ar  
    38    21    37 1   
    39    22    23 ar  
    40    22    38 1   
    41    23    24 ar  
    42    23    39 1   
    43    24    25 ar  
    44    24    40 1   
    45    25    41 1   
@<TRIPOS>SUBSTRUCTURE
     1 727         1 TEMP              0 ****  ****    0 ROOT
