@<TRIPOS>MOLECULE
727
   42    45     1     0     0
SMALL
No Charge or Current Charge


@<TRIPOS>ATOM
      1 N1           0.3090     1.0150    -0.4810 n          1 727      -0.343100
      2 N2           1.0570     1.3720     0.7070 na         1 727      -0.151100
      3 C3           1.1930     0.4120    -1.3980 c          1 727       0.574600
      4 N4          -1.0970    -1.1570     1.8360 ns         1 727      -0.471500
      5 C5          -1.6970     0.0270     1.6000 c          1 727       0.588000
      6 C6          -1.9740    -0.0060     0.0530 c5         1 727       0.060700
      7 N7          -1.4220    -1.3490    -0.2830 ns         1 727      -0.520900
      8 C8          -0.8930    -1.9740     0.8010 c          1 727       0.625000
      9 O9          -0.3470    -3.0590     0.8240 o          1 727      -0.542000
     10 C11         -3.4850     0.1320    -0.2220 ca         1 727      -0.106300
     11 C12         -1.1570     1.1210    -0.6420 c3         1 727       0.115000
     12 C13          2.5110     0.3850    -0.7260 ca         1 727      -0.173600
     13 C14          2.3640     0.9510     0.5230 ca         1 727      -0.066200
     14 C15          3.4470     1.0690     1.4020 ca         1 727      -0.091000
     15 C16          4.7030     0.5780     0.9800 ca         1 727      -0.145000
     16 C17          4.8550    -0.0130    -0.3060 ca         1 727       0.112100
     17 C18          3.7440    -0.1110    -1.1720 ca         1 727      -0.048000
     18 O19          0.9140    -0.0250    -2.5060 o          1 727      -0.530000
     19 O20          6.0650    -0.5050    -0.7560 os         1 727      -0.338100
     20 C21          7.2590    -0.4570     0.0450 c3         1 727       0.148900
     21 C22         -4.2360    -0.9120    -0.8130 ca         1 727      -0.088500
     22 C23         -5.6130    -0.7620    -1.0550 ca         1 727      -0.110000
     23 C24         -6.2650     0.4310    -0.7090 ca         1 727      -0.097000
     24 C25         -5.5370     1.4740    -0.1190 ca         1 727      -0.110000
     25 C26         -4.1610     1.3260     0.1220 ca         1 727      -0.088500
     26 HN2          0.7730     2.2500     1.1320 hn         1 727       0.306000
     27 HN4         -0.7890    -1.4100     2.7610 hn         1 727       0.355500
     28 HN7         -1.3270    -1.7680    -1.2010 hn         1 727       0.360500
     29 H12         -1.4760     2.0960    -0.2540 h1         1 727       0.084700
     30 H12A        -1.3930     1.1090    -1.7140 h1         1 727       0.084700
     31 H15          3.3250     1.5240     2.3820 ha         1 727       0.128000
     32 H16          5.5450     0.6650     1.6610 ha         1 727       0.121000
     33 H18          3.8450    -0.5600    -2.1570 ha         1 727       0.150000
     34 H21          7.5220     0.5800     0.2910 h1         1 727       0.042033
     35 H21A         7.1270    -1.0190     0.9780 h1         1 727       0.042033
     36 H21B         8.1010    -0.9000    -0.5020 h1         1 727       0.042033
     37 H22         -3.7650    -1.8500    -1.0940 ha         1 727       0.120500
     38 H23         -6.1750    -1.5740    -1.5110 ha         1 727       0.117000
     39 H24         -7.3310     0.5450    -0.8960 ha         1 727       0.116000
     40 H25         -6.0390     2.4000     0.1530 ha         1 727       0.117000
     41 H26         -3.6220     2.1490     0.5870 ha         1 727       0.120500
     42 O10         -1.9380     0.8770     2.4450 o          1 727      -0.511000
@<TRIPOS>BOND
     1     1     2 1   
     2     1     3 1   
     3     1    11 1   
     4     2    13 1   
     5     2    26 1   
     6     3    12 1   
     7     3    18 2   
     8     4     5 1   
     9     4     8 1   
    10     4    27 1   
    11     5     6 1   
    12     5    42 2   
    13     6     7 1   
    14     6    10 1   
    15     6    11 1   
    16     7     8 1   
    17     7    28 1   
    18     8     9 2   
    19    10    21 ar  
    20    10    25 ar  
    21    11    29 1   
    22    11    30 1   
    23    12    13 ar  
    24    12    17 ar  
    25    13    14 ar  
    26    14    15 ar  
    27    14    31 1   
    28    15    16 ar  
    29    15    32 1   
    30    16    17 ar  
    31    16    19 1   
    32    17    33 1   
    33    19    20 1   
    34    20    34 1   
    35    20    35 1   
    36    20    36 1   
    37    21    22 ar  
    38    21    37 1   
    39    22    23 ar  
    40    22    38 1   
    41    23    24 ar  
    42    23    39 1   
    43    24    25 ar  
    44    24    40 1   
    45    25    41 1   
@<TRIPOS>SUBSTRUCTURE
     1 727         1 TEMP              0 ****  ****    0 ROOT
