@<TRIPOS>MOLECULE
728
   50    52     1     0     0
SMALL
abcg2


@<TRIPOS>ATOM
      1 CAA         -7.0500    -0.3210    -1.1230 ca         1 728      -0.052500
      2 CAB         -7.9580    -1.2990    -0.7480 ca         1 728      -0.183000
      3 CAC         -8.0850    -1.6770     0.5930 ca         1 728       0.298000
      4 NAG         -9.0250    -2.6060     0.9840 nv         1 728      -1.072000
      5 CAD         -7.2640    -1.0400     1.5350 ca         1 728      -0.183000
      6 CAE         -6.3650    -0.0650     1.1440 ca         1 728      -0.052500
      7 CAF         -6.2410     0.3190    -0.1910 ca         1 728      -0.161300
      8 CAH         -5.2590     1.3790    -0.6050 c3         1 728       0.167300
      9 NAI         -3.9000     0.9210    -0.3930 ns         1 728      -0.514900
     10 CAJ         -2.8480     1.7820    -0.4080 c          1 728       0.647100
     11 OAL         -2.9870     3.0020    -0.4480 o          1 728      -0.655100
     12 N           -1.6260     1.1940    -0.3680 ns         1 728      -0.519900
     13 CA          -0.4320     1.9770    -0.2400 c3         1 728       0.040000
     14 C            0.7440     1.0580     0.0370 c          1 728       0.589100
     15 O            0.5850    -0.1300     0.2830 o          1 728      -0.602100
     16 NAP          1.9600     1.6240    -0.0080 n          1 728      -0.414800
     17 CAQ          2.2400     3.0510    -0.1410 c5         1 728       0.100000
     18 CAR          3.5620     3.2050     0.5950 c5         1 728      -0.096400
     19 CAS          4.2750     1.8950     0.2860 c5         1 728      -0.088400
     20 CAT          3.1510     0.8460     0.3170 c5         1 728       0.154000
     21 CAU          3.4130    -0.2830    -0.6530 ca         1 728      -0.050300
     22 CAX          3.0130    -0.1650    -1.9840 ca         1 728      -0.095000
     23 CAW          3.2820    -1.1510    -2.9170 ca         1 728      -0.098000
     24 CAV          3.9720    -2.2940    -2.5380 ca         1 728      -0.107000
     25 CAY          4.3930    -2.4360    -1.2260 ca         1 728      -0.086000
     26 CAZ          4.1150    -1.4330    -0.3040 ca         1 728      -0.001900
     27 BR           4.7540    -1.6880     1.4650 br         1 728      -0.109100
     28 H1          -6.9760    -0.0500    -2.1700 ha         1 728       0.114000
     29 H2          -8.5780    -1.7730    -1.4990 ha         1 728       0.113000
     30 H3          -9.3070    -3.2670     0.2790 hn         1 728       0.449000
     31 H4          -8.8550    -3.0550     1.8700 hn         1 728       0.449000
     32 H5          -7.3380    -1.3150     2.5810 ha         1 728       0.113000
     33 H6          -5.7440     0.4070     1.8970 ha         1 728       0.114000
     34 H7          -5.4340     1.6480    -1.6520 h1         1 728       0.054700
     35 H8          -5.4130     2.2840    -0.0160 h1         1 728       0.054700
     36 H9          -3.7260    -0.0570    -0.5640 hn         1 728       0.308500
     37 H10         -1.5370     0.2060    -0.1830 hn         1 728       0.336500
     38 H11         -0.2370     2.5610    -1.1450 h1         1 728       0.064700
     39 H12         -0.5110     2.6990     0.5800 h1         1 728       0.064700
     40 H13          2.3390     3.3300    -1.1950 h1         1 728       0.052700
     41 H14          1.4490     3.6580     0.2960 h1         1 728       0.052700
     42 H15          4.1180     4.0800     0.2630 hc         1 728       0.058700
     43 H16          3.3850     3.3040     1.6680 hc         1 728       0.058700
     44 H17          4.7180     1.9370    -0.7110 hc         1 728       0.062700
     45 H18          5.0680     1.6540     0.9930 hc         1 728       0.062700
     46 H19          3.0380     0.4490     1.3290 h1         1 728       0.082700
     47 H20          2.4750     0.7220    -2.2940 ha         1 728       0.118000
     48 H21          2.9530    -1.0260    -3.9400 ha         1 728       0.117000
     49 H22          4.1880    -3.0730    -3.2570 ha         1 728       0.118000
     50 H23          4.9360    -3.3230    -0.9270 ha         1 728       0.129000
@<TRIPOS>BOND
     1     1     2 ar  
     2     1     7 ar  
     3     1    28 1   
     4     2     3 ar  
     5     2    29 1   
     6     3     4 1   
     7     3     5 ar  
     8     4    30 1   
     9     4    31 1   
    10     5     6 ar  
    11     5    32 1   
    12     6     7 ar  
    13     6    33 1   
    14     7     8 1   
    15     8     9 1   
    16     8    34 1   
    17     8    35 1   
    18     9    10 1   
    19     9    36 1   
    20    10    11 2   
    21    10    12 1   
    22    12    13 1   
    23    12    37 1   
    24    13    14 1   
    25    13    38 1   
    26    13    39 1   
    27    14    15 2   
    28    14    16 1   
    29    16    17 1   
    30    16    20 1   
    31    17    18 1   
    32    17    40 1   
    33    17    41 1   
    34    18    19 1   
    35    18    42 1   
    36    18    43 1   
    37    19    20 1   
    38    19    44 1   
    39    19    45 1   
    40    20    21 1   
    41    20    46 1   
    42    21    22 ar  
    43    21    26 ar  
    44    22    23 ar  
    45    22    47 1   
    46    23    24 ar  
    47    23    48 1   
    48    24    25 ar  
    49    24    49 1   
    50    25    26 ar  
    51    25    50 1   
    52    26    27 1   
@<TRIPOS>SUBSTRUCTURE
     1 728         1 TEMP              0 ****  ****    0 ROOT
