@<TRIPOS>MOLECULE
728
   50    52     1     0     0
SMALL
No Charge or Current Charge


@<TRIPOS>ATOM
      1 CAA         -6.5780    -0.5890    -1.1520 ca         1 728      -0.052500
      2 CAB         -7.4300    -1.6790    -0.9020 ca         1 728      -0.183000
      3 CAC         -7.9620    -1.8790     0.3800 ca         1 728       0.298000
      4 NAG         -8.7890    -2.9410     0.6200 nv         1 728      -1.072000
      5 CAD         -7.6440    -0.9880     1.4140 ca         1 728      -0.183000
      6 CAE         -6.7930     0.1040     1.1700 ca         1 728      -0.052500
      7 CAF         -6.2570     0.3090    -0.1160 ca         1 728      -0.161300
      8 CAH         -5.3350     1.4880    -0.3830 c3         1 728       0.167300
      9 NAI         -3.9440     1.1230    -0.1460 ns         1 728      -0.514900
     10 CAJ         -2.8930     1.9780    -0.3050 c          1 728       0.647100
     11 OAL         -3.0130     3.1370    -0.6630 o          1 728      -0.655100
     12 N           -1.6900     1.4000    -0.0220 ns         1 728      -0.519900
     13 CA          -0.3870     2.0970    -0.1110 c3         1 728       0.040000
     14 C            0.8050     1.1690     0.2500 c          1 728       0.589100
     15 O            0.6270     0.0110     0.6170 o          1 728      -0.602100
     16 NAP          2.1080     1.6950     0.1210 n          1 728      -0.414800
     17 CAQ          2.3940     3.1340    -0.0700 c5         1 728       0.100000
     18 CAR          3.8570     3.2330     0.4390 c5         1 728      -0.096400
     19 CAS          4.4570     1.8930    -0.0480 c5         1 728      -0.088400
     20 CAT          3.3320     0.8900     0.3410 c5         1 728       0.154000
     21 CAU          3.3920    -0.2730    -0.6690 ca         1 728      -0.050300
     22 CAX          2.9960    -0.0810    -2.0150 ca         1 728      -0.095000
     23 CAW          3.0460    -1.1330    -2.9440 ca         1 728      -0.098000
     24 CAV          3.4980    -2.4000    -2.5460 ca         1 728      -0.107000
     25 CAY          3.9020    -2.6090    -1.2190 ca         1 728      -0.086000
     26 CAZ          3.8520    -1.5580    -0.2860 ca         1 728      -0.001900
     27 Br           4.4420    -1.9310     1.5040 br         1 728      -0.109100
     28 H1          -6.1680    -0.4430    -2.1500 ha         1 728       0.114000
     29 H2          -7.6730    -2.3670    -1.7070 ha         1 728       0.113000
     30 H3          -8.9000    -3.6650    -0.0870 hn         1 728       0.449000
     31 H4          -9.0550    -3.1700     1.5760 hn         1 728       0.449000
     32 H5          -8.0530    -1.1380     2.4090 ha         1 728       0.113000
     33 H6          -6.5500     0.7900     1.9800 ha         1 728       0.114000
     34 H7          -5.4450     1.8210    -1.4240 h1         1 728       0.054700
     35 H8          -5.6010     2.3280     0.2730 h1         1 728       0.054700
     36 H9          -3.7420     0.1790     0.1550 hn         1 728       0.308500
     37 H10         -1.6920     0.4300     0.2690 hn         1 728       0.336500
     38 H11         -0.2380     2.4690    -1.1320 h1         1 728       0.064700
     39 H12         -0.3860     2.9490     0.5800 h1         1 728       0.064700
     40 H13          2.3170     3.4050    -1.1310 h1         1 728       0.052700
     41 H14          1.7250     3.7840     0.5090 h1         1 728       0.052700
     42 H15          4.3810     4.1070     0.0370 hc         1 728       0.058700
     43 H16          3.8880     3.3060     1.5330 hc         1 728       0.058700
     44 H17          4.6390     1.9240    -1.1290 hc         1 728       0.062700
     45 H18          5.4110     1.6530     0.4340 hc         1 728       0.062700
     46 H19          3.3990     0.5760     1.3910 h1         1 728       0.082700
     47 H20          2.6460     0.8940    -2.3480 ha         1 728       0.118000
     48 H21          2.7360    -0.9650    -3.9730 ha         1 728       0.117000
     49 H22          3.5380    -3.2160    -3.2650 ha         1 728       0.118000
     50 H23          4.2570    -3.5910    -0.9120 ha         1 728       0.129000
@<TRIPOS>BOND
     1     1     2 ar  
     2     1     7 ar  
     3     1    28 1   
     4     2     3 ar  
     5     2    29 1   
     6     3     4 1   
     7     3     5 ar  
     8     4    30 1   
     9     4    31 1   
    10     5     6 ar  
    11     5    32 1   
    12     6     7 ar  
    13     6    33 1   
    14     7     8 1   
    15     8     9 1   
    16     8    34 1   
    17     8    35 1   
    18     9    10 1   
    19     9    36 1   
    20    10    11 2   
    21    10    12 1   
    22    12    13 1   
    23    12    37 1   
    24    13    14 1   
    25    13    38 1   
    26    13    39 1   
    27    14    15 2   
    28    14    16 1   
    29    16    17 1   
    30    16    20 1   
    31    17    18 1   
    32    17    40 1   
    33    17    41 1   
    34    18    19 1   
    35    18    42 1   
    36    18    43 1   
    37    19    20 1   
    38    19    44 1   
    39    19    45 1   
    40    20    21 1   
    41    20    46 1   
    42    21    22 ar  
    43    21    26 ar  
    44    22    23 ar  
    45    22    47 1   
    46    23    24 ar  
    47    23    48 1   
    48    24    25 ar  
    49    24    49 1   
    50    25    26 ar  
    51    25    50 1   
    52    26    27 1   
@<TRIPOS>SUBSTRUCTURE
     1 728         1 TEMP              0 ****  ****    0 ROOT
