@<TRIPOS>MOLECULE
729
   80    84     1     0     0
SMALL
abcg2


@<TRIPOS>ATOM
      1 C10         18.5280   -14.3600   -11.6120 ca         1 729      -0.011000
      2 C11         18.3320   -13.5460   -10.4830 ca         1 729      -0.126300
      3 C12         19.2520   -12.5350   -10.2280 ca         1 729      -0.069000
      4 C13         20.3530   -12.2970   -11.0550 ca         1 729      -0.133500
      5 N01         17.6120   -15.4030   -11.8470 ns         1 729      -0.163000
      6 N02         16.3290   -16.9420   -12.9560 ns         1 729      -0.497400
      7 N03         14.9090   -18.5910   -13.7380 nc         1 729      -0.439300
      8 N04         22.8610    -9.7950   -11.0510 na         1 729      -0.052200
      9 N05         22.1930   -10.8030   -11.6550 nc         1 729      -0.516800
     10 N06         22.9740    -8.5410    -9.0390 ns         1 729      -0.400100
     11 N07         24.7040    -2.5630    -5.3650 n3         1 729      -0.713600
     12 N08         27.0070    -1.3410    -6.1050 n3         1 729      -0.731600
     13 C01         17.2560   -15.9200   -13.0650 c          1 729       0.672100
     14 C02         15.7940   -17.6540   -14.0070 cd         1 729       0.426900
     15 C03         15.2580   -18.5040   -15.9580 cc         1 729       0.210300
     16 C04         16.0540   -17.5530   -15.4040 cd         1 729      -0.244000
     17 C05         15.0310   -18.9590   -17.3710 c3         1 729      -0.091300
     18 C06         15.4260   -20.4440   -17.4920 c3         1 729      -0.084433
     19 C07         13.5430   -18.7860   -17.7290 c3         1 729      -0.084433
     20 C08         15.8930   -18.1180   -18.3200 c3         1 729      -0.084433
     21 C09         19.6350   -14.1490   -12.4380 ca         1 729      -0.124000
     22 C14         20.5290   -13.1270   -12.1650 ca         1 729      -0.063000
     23 C15         21.2870   -11.2050   -10.7600 cd         1 729       0.329500
     24 C16         21.3750   -10.4410    -9.5680 cd         1 729      -0.225000
     25 C17         22.4020    -9.5450    -9.8010 cc         1 729       0.008600
     26 C18         22.5780    -8.1870    -7.7770 c          1 729       0.626700
     27 C19         23.3450    -7.0740    -7.1440 ca         1 729      -0.155600
     28 C20         22.7180    -6.3570    -6.1200 ca         1 729      -0.073000
     29 C21         23.3760    -5.3170    -5.4870 ca         1 729      -0.106500
     30 C22         24.6820    -4.9740    -5.8440 ca         1 729      -0.053300
     31 C23         25.3090    -5.6990    -6.8540 ca         1 729      -0.106500
     32 C24         24.6510    -6.7390    -7.5020 ca         1 729      -0.073000
     33 C25         25.3910    -3.8410    -5.1460 c3         1 729       0.208100
     34 C26         24.7490    -2.1170    -6.7530 c6         1 729       0.164300
     35 C27         26.1720    -1.7640    -7.2310 c6         1 729       0.133300
     36 C28         26.2340    -0.5760    -5.1380 c6         1 729       0.133300
     37 C29         25.1690    -1.4800    -4.4840 c6         1 729       0.164300
     38 C30         28.2000    -0.6490    -6.5540 c3         1 729       0.157100
     39 C31         17.1510   -13.7470    -9.5730 c3         1 729      -0.046800
     40 O01         17.6960   -15.5340   -14.1390 o          1 729      -0.596100
     41 O02         14.5660   -19.1350   -14.9880 os         1 729      -0.088700
     42 O03         21.6450    -8.7420    -7.2080 o          1 729      -0.565100
     43 H1          19.0870   -11.9040    -9.3640 ha         1 729       0.119000
     44 H2          17.0930   -15.7250   -11.0460 hn         1 729       0.152000
     45 H3          16.0080   -17.2160   -12.0380 hn         1 729       0.332500
     46 H5          23.6090    -9.3240   -11.5350 hn         1 729       0.367000
     47 H6          23.6960    -7.9930    -9.4830 hn         1 729       0.321500
     48 H11         16.7270   -16.8780   -15.8930 ha         1 729       0.176000
     49 H13         14.8230   -21.0670   -16.8310 hc         1 729       0.043811
     50 H14         15.2670   -20.7770   -18.5190 hc         1 729       0.043811
     51 H15         16.4780   -20.5870   -17.2410 hc         1 729       0.043811
     52 H16         13.2430   -17.7400   -17.6450 hc         1 729       0.043811
     53 H17         13.3780   -19.1120   -18.7570 hc         1 729       0.043811
     54 H18         12.9080   -19.3820   -17.0730 hc         1 729       0.043811
     55 H19         15.6310   -17.0600   -18.2600 hc         1 729       0.043811
     56 H20         16.9540   -18.2250   -18.0910 hc         1 729       0.043811
     57 H21         15.7300   -18.4520   -19.3460 hc         1 729       0.043811
     58 H22         19.7910   -14.7890   -13.2910 ha         1 729       0.141000
     59 H23         21.3820   -12.9810   -12.8140 ha         1 729       0.132000
     60 H24         20.7930   -10.5260    -8.6720 ha         1 729       0.168000
     61 H25         21.7100    -6.6240    -5.8340 ha         1 729       0.122500
     62 H26         22.8750    -4.7570    -4.7070 ha         1 729       0.124500
     63 H27         26.3240    -5.4490    -7.1370 ha         1 729       0.124500
     64 H28         25.1810    -7.2930    -8.2650 ha         1 729       0.122500
     65 H29         26.4400    -3.8160    -5.4640 h1         1 729       0.053200
     66 H30         25.3840    -4.0290    -4.0700 h1         1 729       0.053200
     67 H31         24.1060    -1.2380    -6.8320 h1         1 729       0.054200
     68 H32         24.3230    -2.8840    -7.4010 h1         1 729       0.054200
     69 H33         26.6500    -2.6230    -7.7100 h1         1 729       0.035450
     70 H34         26.1000    -0.9690    -7.9930 h1         1 729       0.035450
     71 H35         26.9090    -0.1890    -4.3730 h1         1 729       0.035450
     72 H36         25.7550     0.3000    -5.6120 h1         1 729       0.035450
     73 H37         25.5690    -1.9310    -3.5750 h1         1 729       0.054200
     74 H38         24.3130    -0.8620    -4.1930 h1         1 729       0.054200
     75 H39         28.8400    -0.4180    -5.7010 h1         1 729       0.032033
     76 H40         28.7580    -1.2880    -7.2420 h1         1 729       0.032033
     77 H41         27.9700     0.2940    -7.0790 h1         1 729       0.032033
     78 H42         17.1820   -14.7220    -9.0770 hc         1 729       0.041700
     79 H43         17.1340   -12.9830    -8.7980 hc         1 729       0.041700
     80 H44         16.2100   -13.6960   -10.1270 hc         1 729       0.041700
@<TRIPOS>BOND
     1     1     2 ar  
     2     1     5 1   
     3     1    21 ar  
     4     2     3 ar  
     5     2    39 1   
     6     3     4 ar  
     7     3    43 1   
     8     4    22 ar  
     9     4    23 1   
    10     5    13 1   
    11     5    44 1   
    12     6    13 1   
    13     6    14 1   
    14     6    45 1   
    15     7    14 2   
    16     7    41 1   
    17     8     9 1   
    18     8    25 1   
    19     8    46 1   
    20     9    23 2   
    21    10    25 1   
    22    10    26 1   
    23    10    47 1   
    24    11    33 1   
    25    11    34 1   
    26    11    37 1   
    27    12    35 1   
    28    12    36 1   
    29    12    38 1   
    30    13    40 2   
    31    14    16 1   
    32    15    16 2   
    33    15    17 1   
    34    15    41 1   
    35    16    48 1   
    36    17    18 1   
    37    17    19 1   
    38    17    20 1   
    39    18    49 1   
    40    18    50 1   
    41    18    51 1   
    42    19    52 1   
    43    19    53 1   
    44    19    54 1   
    45    20    55 1   
    46    20    56 1   
    47    20    57 1   
    48    21    22 ar  
    49    21    58 1   
    50    22    59 1   
    51    23    24 1   
    52    24    25 2   
    53    24    60 1   
    54    26    27 1   
    55    26    42 2   
    56    27    28 ar  
    57    27    32 ar  
    58    28    29 ar  
    59    28    61 1   
    60    29    30 ar  
    61    29    62 1   
    62    30    31 ar  
    63    30    33 1   
    64    31    32 ar  
    65    31    63 1   
    66    32    64 1   
    67    33    65 1   
    68    33    66 1   
    69    34    35 1   
    70    34    67 1   
    71    34    68 1   
    72    35    69 1   
    73    35    70 1   
    74    36    37 1   
    75    36    71 1   
    76    36    72 1   
    77    37    73 1   
    78    37    74 1   
    79    38    75 1   
    80    38    76 1   
    81    38    77 1   
    82    39    78 1   
    83    39    79 1   
    84    39    80 1   
@<TRIPOS>SUBSTRUCTURE
     1 729         1 TEMP              0 ****  ****    0 ROOT
