@<TRIPOS>MOLECULE
729
   80    84     1     0     0
SMALL
No Charge or Current Charge


@<TRIPOS>ATOM
      1 C10         18.5830   -14.1680   -11.9160 ca         1 729      -0.011000
      2 C11         18.5380   -13.5000   -10.6700 ca         1 729      -0.126300
      3 C12         19.5230   -12.5450   -10.3460 ca         1 729      -0.069000
      4 C13         20.5630   -12.2320   -11.2460 ca         1 729      -0.133500
      5 N01         17.5740   -15.1320   -12.2090 ns         1 729      -0.163000
      6 N02         16.2000   -16.6860   -13.1700 ns         1 729      -0.497400
      7 N03         14.5820   -18.3020   -13.6830 nc         1 729      -0.439300
      8 N04         23.3910   -10.0870   -10.9480 na         1 729      -0.052200
      9 N05         22.7060   -11.0960   -11.6090 nc         1 729      -0.516800
     10 N06         23.1470    -8.5980    -8.9710 ns         1 729      -0.400100
     11 N07         24.6170    -2.4380    -5.0810 n3         1 729      -0.713600
     12 N08         27.0000    -1.3710    -6.1390 n3         1 729      -0.731600
     13 C01         17.2440   -15.8150   -13.3700 c          1 729       0.672100
     14 C02         15.5790   -17.5290   -14.0550 cd         1 729       0.426900
     15 C03         15.0410   -18.6110   -15.9070 cc         1 729       0.210300
     16 C04         15.9020   -17.6800   -15.4150 cd         1 729      -0.244000
     17 C05         14.8700   -19.2130   -17.2920 c3         1 729      -0.091300
     18 C06         15.0830   -20.7480   -17.2190 c3         1 729      -0.084433
     19 C07         13.4410   -18.9140   -17.8140 c3         1 729      -0.084433
     20 C08         15.9020   -18.6120   -18.2840 c3         1 729      -0.084433
     21 C09         19.6340   -13.8710   -12.8090 ca         1 729      -0.124000
     22 C14         20.6110   -12.9180   -12.4770 ca         1 729      -0.063000
     23 C15         21.6040   -11.2400   -10.8870 cd         1 729       0.329500
     24 C16         21.5750   -10.3440    -9.7930 cd         1 729      -0.225000
     25 C17         22.7210    -9.6060    -9.8300 cc         1 729       0.008600
     26 C18         22.5240    -8.0800    -7.8460 c          1 729       0.626700
     27 C19         23.2620    -6.9690    -7.1190 ca         1 729      -0.155600
     28 C20         22.6840    -6.3960    -5.9620 ca         1 729      -0.073000
     29 C21         23.3370    -5.3660    -5.2630 ca         1 729      -0.106500
     30 C22         24.5810    -4.8830    -5.7030 ca         1 729      -0.053300
     31 C23         25.1650    -5.4440    -6.8520 ca         1 729      -0.106500
     32 C24         24.5170    -6.4740    -7.5560 ca         1 729      -0.073000
     33 C25         25.2850    -3.7620    -4.9420 c3         1 729       0.208100
     34 C26         24.5140    -1.9600    -6.4970 c6         1 729       0.164300
     35 C27         25.8920    -1.5480    -7.1320 c6         1 729       0.133300
     36 C28         26.5200    -0.6890    -4.9000 c6         1 729       0.133300
     37 C29         25.2560    -1.3660    -4.2470 c6         1 729       0.164300
     38 C30         28.2160    -0.7640    -6.7200 c3         1 729       0.157100
     39 C31         17.4310   -13.7970    -9.6590 c3         1 729      -0.046800
     40 O01         17.7990   -15.6600   -14.4460 o          1 729      -0.596100
     41 O02         14.2170   -19.0180   -14.8830 os         1 729      -0.088700
     42 O03         21.4390    -8.4880    -7.4510 o          1 729      -0.565100
     43 H1          19.4740   -12.0500    -9.3800 ha         1 729       0.119000
     44 H2          16.9940   -15.3590   -11.4140 hn         1 729       0.152000
     45 H3          15.8460   -16.6980   -12.2250 hn         1 729       0.332500
     46 H5          24.2950    -9.7600   -11.2850 hn         1 729       0.367000
     47 H6          24.0370    -8.1640    -9.1730 hn         1 729       0.321500
     48 H11         16.6730   -17.1720   -15.9750 ha         1 729       0.176000
     49 H13         14.3480   -21.2170   -16.5530 hc         1 729       0.043811
     50 H14         14.9790   -21.2080   -18.2100 hc         1 729       0.043811
     51 H15         16.0840   -20.9850   -16.8380 hc         1 729       0.043811
     52 H16         13.2620   -17.8330   -17.8610 hc         1 729       0.043811
     53 H17         13.2940   -19.3260   -18.8200 hc         1 729       0.043811
     54 H18         12.6800   -19.3540   -17.1570 hc         1 729       0.043811
     55 H19         15.7770   -17.5250   -18.3710 hc         1 729       0.043811
     56 H20         16.9290   -18.8120   -17.9530 hc         1 729       0.043811
     57 H21         15.7830   -19.0440   -19.2860 hc         1 729       0.043811
     58 H22         19.7220   -14.3750   -13.7660 ha         1 729       0.141000
     59 H23         21.4070   -12.7160   -13.1910 ha         1 729       0.132000
     60 H24         20.7790   -10.2600    -9.0660 ha         1 729       0.168000
     61 H25         21.7210    -6.7470    -5.5970 ha         1 729       0.122500
     62 H26         22.8720    -4.9370    -4.3780 ha         1 729       0.124500
     63 H27         26.1270    -5.0770    -7.2060 ha         1 729       0.124500
     64 H28         25.0110    -6.8730    -8.4390 ha         1 729       0.122500
     65 H29         26.3310    -3.7130    -5.2730 h1         1 729       0.053200
     66 H30         25.3130    -4.0480    -3.8810 h1         1 729       0.053200
     67 H31         23.8600    -1.0750    -6.5240 h1         1 729       0.054200
     68 H32         24.0290    -2.7090    -7.1390 h1         1 729       0.054200
     69 H33         26.1820    -2.3180    -7.8610 h1         1 729       0.035450
     70 H34         25.7380    -0.6200    -7.7040 h1         1 729       0.035450
     71 H35         27.3230    -0.6520    -4.1490 h1         1 729       0.035450
     72 H36         26.2630     0.3560    -5.1330 h1         1 729       0.035450
     73 H37         25.5380    -1.7680    -3.2630 h1         1 729       0.054200
     74 H38         24.5220    -0.5720    -4.0470 h1         1 729       0.054200
     75 H39         29.0260    -0.7320    -5.9790 h1         1 729       0.032033
     76 H40         28.5670    -1.3480    -7.5820 h1         1 729       0.032033
     77 H41         28.0190     0.2630    -7.0580 h1         1 729       0.032033
     78 H42         17.4600   -14.8450    -9.3390 hc         1 729       0.041700
     79 H43         17.5240   -13.1790    -8.7580 hc         1 729       0.041700
     80 H44         16.4410   -13.5990   -10.0870 hc         1 729       0.041700
@<TRIPOS>BOND
     1     1     2 ar  
     2     1     5 1   
     3     1    21 ar  
     4     2     3 ar  
     5     2    39 1   
     6     3     4 ar  
     7     3    43 1   
     8     4    22 ar  
     9     4    23 1   
    10     5    13 1   
    11     5    44 1   
    12     6    13 1   
    13     6    14 1   
    14     6    45 1   
    15     7    14 2   
    16     7    41 1   
    17     8     9 1   
    18     8    25 1   
    19     8    46 1   
    20     9    23 2   
    21    10    25 1   
    22    10    26 1   
    23    10    47 1   
    24    11    33 1   
    25    11    34 1   
    26    11    37 1   
    27    12    35 1   
    28    12    36 1   
    29    12    38 1   
    30    13    40 2   
    31    14    16 1   
    32    15    16 2   
    33    15    17 1   
    34    15    41 1   
    35    16    48 1   
    36    17    18 1   
    37    17    19 1   
    38    17    20 1   
    39    18    49 1   
    40    18    50 1   
    41    18    51 1   
    42    19    52 1   
    43    19    53 1   
    44    19    54 1   
    45    20    55 1   
    46    20    56 1   
    47    20    57 1   
    48    21    22 ar  
    49    21    58 1   
    50    22    59 1   
    51    23    24 1   
    52    24    25 2   
    53    24    60 1   
    54    26    27 1   
    55    26    42 2   
    56    27    28 ar  
    57    27    32 ar  
    58    28    29 ar  
    59    28    61 1   
    60    29    30 ar  
    61    29    62 1   
    62    30    31 ar  
    63    30    33 1   
    64    31    32 ar  
    65    31    63 1   
    66    32    64 1   
    67    33    65 1   
    68    33    66 1   
    69    34    35 1   
    70    34    67 1   
    71    34    68 1   
    72    35    69 1   
    73    35    70 1   
    74    36    37 1   
    75    36    71 1   
    76    36    72 1   
    77    37    73 1   
    78    37    74 1   
    79    38    75 1   
    80    38    76 1   
    81    38    77 1   
    82    39    78 1   
    83    39    79 1   
    84    39    80 1   
@<TRIPOS>SUBSTRUCTURE
     1 729         1 TEMP              0 ****  ****    0 ROOT
