@<TRIPOS>MOLECULE
72C
   57    61     1     0     0
SMALL
abcg2


@<TRIPOS>ATOM
      1 C10         -0.7150     0.0780     0.1510 c3         1 72C      -0.064400
      2 C15         -5.1700     1.4830     0.8960 c5         1 72C       0.394000
      3 C14         -4.3160    -0.6160     0.5600 c5         1 72C       0.109300
      4 C13         -4.1720    -3.2290    -2.0510 c3         1 72C       0.153900
      5 C12         -3.9230    -1.2840    -0.7600 c5         1 72C       0.376300
      6 C11         -2.1590     0.0860    -0.2990 c5         1 72C       0.172300
      7 C8           1.6940    -0.1000    -0.5110 ca         1 72C      -0.061300
      8 C9           0.2750    -0.2010    -0.9820 c3         1 72C      -0.003100
      9 N1           4.1230    -2.4300     0.5810 na         1 72C      -0.358600
     10 O3          -5.4730     0.1710     0.4500 os         1 72C      -0.459000
     11 C1           3.0620    -3.2220     0.2640 cc         1 72C       0.687700
     12 C2           3.7430    -1.1280     0.3310 ca         1 72C      -0.117200
     13 C3           4.3890     0.0690     0.4680 ca         1 72C      -0.028000
     14 C4           3.6670     1.2170     0.1080 ca         1 72C      -0.229600
     15 C5           4.2920     2.5170     0.2420 c          1 72C       0.593600
     16 C6           2.2060     3.4200    -0.5940 cc         1 72C       0.704800
     17 C7           2.3380     1.1440    -0.3750 ca         1 72C       0.216400
     18 O            5.4280     2.7250     0.6430 o          1 72C      -0.554000
     19 N2           3.4830     3.5700    -0.1270 ns         1 72C      -0.453400
     20 N3           1.5360     4.5620    -0.8700 nv         1 72C      -1.035200
     21 N4           1.6350     2.2700    -0.7280 nd         1 72C      -0.703100
     22 C19          2.4120    -1.2310    -0.1460 ca         1 72C       0.162400
     23 N5           2.0200    -2.5410    -0.1740 nd         1 72C      -0.663100
     24 N            3.1080    -4.5510     0.3900 nu         1 72C      -0.915400
     25 C            4.2490    -5.2710     0.9000 c3         1 72C       0.220100
     26 C18         -3.1770     0.3760     0.8170 c5         1 72C       0.102300
     27 O4          -3.7850     1.6370     0.6700 os         1 72C      -0.462000
     28 C16         -5.5010     1.6280     2.3770 c3         1 72C      -0.107600
     29 C17         -5.9220     2.4820     0.0430 c3         1 72C      -0.107600
     30 O1          -2.5190    -1.1950    -0.7900 os         1 72C      -0.474000
     31 O2          -4.3190    -2.6000    -0.7920 os         1 72C      -0.439000
     32 H1          -0.4950     1.0590     0.5800 hc         1 72C       0.056200
     33 H2          -0.5850    -0.6570     0.9520 hc         1 72C       0.056200
     34 H3          -4.4090    -1.3690     1.3510 h1         1 72C       0.089700
     35 H4          -4.6570    -2.6520    -2.8460 h1         1 72C       0.035367
     36 H5          -3.1230    -3.3760    -2.3210 h1         1 72C       0.035367
     37 H6          -4.6540    -4.2020    -1.9860 h1         1 72C       0.035367
     38 H7          -4.3560    -0.7190    -1.6060 h2         1 72C       0.042700
     39 H8          -2.2930     0.8440    -1.0860 h1         1 72C       0.057700
     40 H9           0.0990    -1.1980    -1.3870 hc         1 72C       0.062700
     41 H10          0.1010     0.5160    -1.7870 hc         1 72C       0.062700
     42 H11          5.0130    -2.7310     0.9430 hn         1 72C       0.356000
     43 H12          5.4030     0.1430     0.8370 ha         1 72C       0.135000
     44 H13          3.8710     4.4980    -0.0250 hn         1 72C       0.323500
     45 H14          0.6850     4.4550    -1.3970 hn         1 72C       0.486500
     46 H15          2.0530     5.4030    -1.0700 hn         1 72C       0.486500
     47 H17          2.2730    -5.0560     0.1530 hn         1 72C       0.525000
     48 H18          5.1350    -5.1220     0.2790 h1         1 72C       0.039367
     49 H19          4.4920    -4.9840     1.9260 h1         1 72C       0.039367
     50 H20          4.0140    -6.3300     0.8960 h1         1 72C       0.039367
     51 H21         -2.7320     0.2600     1.8110 h1         1 72C       0.074700
     52 H22         -6.5640     1.4600     2.5470 hc         1 72C       0.050700
     53 H23         -4.9460     0.9140     2.9890 hc         1 72C       0.050700
     54 H24         -5.2590     2.6320     2.7270 hc         1 72C       0.050700
     55 H25         -5.6630     3.5000     0.3320 hc         1 72C       0.050700
     56 H26         -5.6840     2.3490    -1.0130 hc         1 72C       0.050700
     57 H27         -6.9970     2.3620     0.1760 hc         1 72C       0.050700
@<TRIPOS>BOND
     1     1     6 1   
     2     1     8 1   
     3     1    32 1   
     4     1    33 1   
     5     2    10 1   
     6     2    27 1   
     7     2    28 1   
     8     2    29 1   
     9     3     5 1   
    10     3    10 1   
    11     3    26 1   
    12     3    34 1   
    13     4    31 1   
    14     4    35 1   
    15     4    36 1   
    16     4    37 1   
    17     5    30 1   
    18     5    31 1   
    19     5    38 1   
    20     6    26 1   
    21     6    30 1   
    22     6    39 1   
    23     7     8 1   
    24     7    17 ar  
    25     7    22 ar  
    26     8    40 1   
    27     8    41 1   
    28     9    11 1   
    29     9    12 1   
    30     9    42 1   
    31    11    23 2   
    32    11    24 1   
    33    12    13 ar  
    34    12    22 ar  
    35    13    14 ar  
    36    13    43 1   
    37    14    15 1   
    38    14    17 ar  
    39    15    18 2   
    40    15    19 1   
    41    16    19 1   
    42    16    20 1   
    43    16    21 2   
    44    17    21 1   
    45    19    44 1   
    46    20    45 1   
    47    20    46 1   
    48    22    23 1   
    49    24    25 1   
    50    24    47 1   
    51    25    48 1   
    52    25    49 1   
    53    25    50 1   
    54    26    27 1   
    55    26    51 1   
    56    28    52 1   
    57    28    53 1   
    58    28    54 1   
    59    29    55 1   
    60    29    56 1   
    61    29    57 1   
@<TRIPOS>SUBSTRUCTURE
     1 72C         1 TEMP              0 ****  ****    0 ROOT
