@<TRIPOS>MOLECULE
72C
   57    61     1     0     0
SMALL
No Charge or Current Charge


@<TRIPOS>ATOM
      1 C10         -0.7500     0.0660     0.1850 c3         1 72C      -0.064400
      2 C15         -5.1810     1.5240     0.9250 c5         1 72C       0.394000
      3 C14         -4.4970    -0.6170     0.4120 c5         1 72C       0.109300
      4 C13         -4.0690    -3.4460    -2.0620 c3         1 72C       0.153900
      5 C12         -3.9960    -1.2930    -0.9050 c5         1 72C       0.376300
      6 C11         -2.2290     0.0330    -0.2600 c5         1 72C       0.172300
      7 C8           1.7150    -0.0070    -0.4850 ca         1 72C      -0.061300
      8 C9           0.2630    -0.1350    -0.9640 c3         1 72C      -0.003100
      9 N1           4.1230    -2.3300     0.6540 na         1 72C      -0.358600
     10 O3          -5.4930     0.3920     0.1000 os         1 72C      -0.459000
     11 C1           3.0500    -3.1470     0.3890 cc         1 72C       0.687700
     12 C2           3.7200    -1.0660     0.3480 ca         1 72C      -0.117200
     13 C3           4.4100     0.1410     0.4350 ca         1 72C      -0.028000
     14 C4           3.7220     1.3120     0.0490 ca         1 72C      -0.229600
     15 C5           4.3950     2.6330     0.1240 c          1 72C       0.593600
     16 C6           2.3570     3.5180    -0.6930 cc         1 72C       0.704800
     17 C7           2.3770     1.2550    -0.4100 ca         1 72C       0.216400
     18 O            5.5420     2.7980     0.5090 o          1 72C      -0.554000
     19 N2           3.6240     3.6610    -0.2740 ns         1 72C      -0.453400
     20 N3           1.7400     4.6290    -1.0490 nv         1 72C      -1.035200
     21 N4           1.6660     2.4130    -0.7960 nd         1 72C      -0.703100
     22 C19          2.4280    -1.1570    -0.0890 ca         1 72C       0.162400
     23 N5           1.9900    -2.4860    -0.0650 nd         1 72C      -0.663100
     24 N            3.0360    -4.4840     0.5610 nu         1 72C      -0.915400
     25 C            4.1640    -5.3390     0.9560 c3         1 72C       0.220100
     26 C18         -3.2680     0.2230     0.8890 c5         1 72C       0.102300
     27 O4          -3.7490     1.5920     0.8510 os         1 72C      -0.462000
     28 C16         -5.6600     1.3090     2.3870 c3         1 72C      -0.107600
     29 C17         -5.7950     2.7960     0.3150 c3         1 72C      -0.107600
     30 O1          -2.5630    -1.2490    -0.8180 os         1 72C      -0.474000
     31 O2          -4.4120    -2.6740    -0.9010 os         1 72C      -0.439000
     32 H1          -0.5470     1.0300     0.6660 hc         1 72C       0.056200
     33 H2          -0.5770    -0.7020     0.9490 hc         1 72C       0.056200
     34 H3          -4.8630    -1.3240     1.1680 h1         1 72C       0.089700
     35 H4          -4.5030    -3.0020    -2.9680 h1         1 72C       0.035367
     36 H5          -2.9810    -3.5020    -2.1900 h1         1 72C       0.035367
     37 H6          -4.4530    -4.4700    -1.9660 h1         1 72C       0.035367
     38 H7          -4.3510    -0.7620    -1.7970 h2         1 72C       0.042700
     39 H8          -2.3790     0.7940    -1.0390 h1         1 72C       0.057700
     40 H9           0.0980    -1.1200    -1.4170 hc         1 72C       0.062700
     41 H10          0.0530     0.5850    -1.7630 hc         1 72C       0.062700
     42 H11          5.0180    -2.6320     1.0070 hn         1 72C       0.356000
     43 H12          5.4390     0.1720     0.7900 ha         1 72C       0.135000
     44 H13          4.0280     4.5800    -0.2190 hn         1 72C       0.323500
     45 H14          0.8630     4.4620    -1.5270 hn         1 72C       0.486500
     46 H15          2.3090     5.3700    -1.4390 hn         1 72C       0.486500
     47 H17          2.1630    -4.9140     0.2620 hn         1 72C       0.525000
     48 H18          4.9970    -5.2300     0.2470 h1         1 72C       0.039367
     49 H19          4.5200    -5.0670     1.9590 h1         1 72C       0.039367
     50 H20          3.8590    -6.3940     0.9710 h1         1 72C       0.039367
     51 H21         -2.9050    -0.0550     1.8880 h1         1 72C       0.074700
     52 H22         -6.7470     1.1770     2.4220 hc         1 72C       0.050700
     53 H23         -5.2050     0.4310     2.8600 hc         1 72C       0.050700
     54 H24         -5.4130     2.1790     3.0060 hc         1 72C       0.050700
     55 H25         -5.5100     3.6850     0.8890 hc         1 72C       0.050700
     56 H26         -5.4550     2.9390    -0.7170 hc         1 72C       0.050700
     57 H27         -6.8890     2.7390     0.3050 hc         1 72C       0.050700
@<TRIPOS>BOND
     1     1     6 1   
     2     1     8 1   
     3     1    32 1   
     4     1    33 1   
     5     2    10 1   
     6     2    27 1   
     7     2    28 1   
     8     2    29 1   
     9     3     5 1   
    10     3    10 1   
    11     3    26 1   
    12     3    34 1   
    13     4    31 1   
    14     4    35 1   
    15     4    36 1   
    16     4    37 1   
    17     5    30 1   
    18     5    31 1   
    19     5    38 1   
    20     6    26 1   
    21     6    30 1   
    22     6    39 1   
    23     7     8 1   
    24     7    17 ar  
    25     7    22 ar  
    26     8    40 1   
    27     8    41 1   
    28     9    11 1   
    29     9    12 1   
    30     9    42 1   
    31    11    23 2   
    32    11    24 1   
    33    12    13 ar  
    34    12    22 ar  
    35    13    14 ar  
    36    13    43 1   
    37    14    15 1   
    38    14    17 ar  
    39    15    18 2   
    40    15    19 1   
    41    16    19 1   
    42    16    20 1   
    43    16    21 2   
    44    17    21 1   
    45    19    44 1   
    46    20    45 1   
    47    20    46 1   
    48    22    23 1   
    49    24    25 1   
    50    24    47 1   
    51    25    48 1   
    52    25    49 1   
    53    25    50 1   
    54    26    27 1   
    55    26    51 1   
    56    28    52 1   
    57    28    53 1   
    58    28    54 1   
    59    29    55 1   
    60    29    56 1   
    61    29    57 1   
@<TRIPOS>SUBSTRUCTURE
     1 72C         1 TEMP              0 ****  ****    0 ROOT
