@<TRIPOS>MOLECULE
72D
   27    28     1     0     0
SMALL
No Charge or Current Charge


@<TRIPOS>ATOM
      1 CAH          0.4220     1.1420     0.2990 ca         1 72D      -0.125500
      2 CAI         -0.9830     1.1200     0.2990 ca         1 72D      -0.009000
      3 CAJ         -1.6700    -0.0720    -0.0020 ca         1 72D      -0.271500
      4 SAM         -3.4660    -0.1060    -0.0040 sy         1 72D       1.126600
      5 OAN         -3.9640    -1.4720     0.1360 o          1 72D      -0.545500
      6 OAO         -4.0110     1.0060     0.7720 o          1 72D      -0.545500
      7 NAP         -3.8410     0.2820    -1.5430 n8         1 72D      -1.004100
      8 CAK         -0.9390    -1.2380    -0.3060 ca         1 72D      -0.009000
      9 CAL          0.4660    -1.2080    -0.3030 ca         1 72D      -0.125500
     10 CAG          1.1770    -0.0190    -0.0000 cp         1 72D       0.028000
     11 CAA          2.6760     0.0080     0.0010 cp         1 72D      -0.054000
     12 CAB          3.4300    -1.1150     0.4280 ca         1 72D      -0.092000
     13 CAC          4.8350    -1.0900     0.4300 ca         1 72D      -0.112000
     14 CAD          5.5180     0.0600     0.0040 ca         1 72D      -0.099000
     15 CAE          4.7940     1.1840    -0.4230 ca         1 72D      -0.112000
     16 CAF          3.3890     1.1590    -0.4240 ca         1 72D      -0.092000
     17 HAH          0.9300     2.0700     0.5490 ha         1 72D       0.121500
     18 HAI         -1.5320     2.0310     0.5360 ha         1 72D       0.137000
     19 HAP         -4.4650    -0.4860    -1.7770 hn         1 72D       0.473000
     20 HAQ         -4.4930     1.0460    -1.3840 hn         1 72D       0.473000
     21 HAK         -1.4530    -2.1660    -0.5490 ha         1 72D       0.137000
     22 HAL          1.0090    -2.1150    -0.5530 ha         1 72D       0.121500
     23 HAB          2.9210    -2.0120     0.7750 ha         1 72D       0.115500
     24 HAC          5.3940    -1.9610     0.7650 ha         1 72D       0.116000
     25 HAD          6.6060     0.0800     0.0050 ha         1 72D       0.115000
     26 HAE          5.3220     2.0760    -0.7570 ha         1 72D       0.116000
     27 HAF          2.8490     2.0360    -0.7720 ha         1 72D       0.115500
@<TRIPOS>BOND
     1     1     2 ar  
     2     1    10 ar  
     3     1    17 1   
     4     2     3 ar  
     5     2    18 1   
     6     3     4 1   
     7     3     8 ar  
     8     4     5 2   
     9     4     6 2   
    10     4     7 1   
    11     7    19 1   
    12     7    20 1   
    13     8     9 ar  
    14     8    21 1   
    15     9    10 ar  
    16     9    22 1   
    17    10    11 1   
    18    11    12 ar  
    19    11    16 ar  
    20    12    13 ar  
    21    12    23 1   
    22    13    14 ar  
    23    13    24 1   
    24    14    15 ar  
    25    14    25 1   
    26    15    16 ar  
    27    15    26 1   
    28    16    27 1   
@<TRIPOS>SUBSTRUCTURE
     1 72D         1 TEMP              0 ****  ****    0 ROOT
