@<TRIPOS>MOLECULE
72D
   27    28     1     0     0
SMALL
abcg2


@<TRIPOS>ATOM
      1 CAH          0.4060     1.1140     0.2730 ca         1 72D      -0.125500
      2 CAI         -0.9760     1.0930     0.2860 ca         1 72D      -0.009000
      3 CAJ         -1.6380    -0.1020     0.0340 ca         1 72D      -0.271500
      4 SAM         -3.4060    -0.1190     0.0560 sy         1 72D       1.126600
      5 OAN         -3.8410    -1.5070     0.1310 o          1 72D      -0.545500
      6 OAO         -3.8870     0.8140     1.0650 o          1 72D      -0.545500
      7 NAP         -3.7490     0.5800    -1.4010 n8         1 72D      -1.004100
      8 CAK         -0.9350    -1.2680    -0.2260 ca         1 72D      -0.009000
      9 CAL          0.4500    -1.2310    -0.2400 ca         1 72D      -0.125500
     10 CAG          1.1420    -0.0450     0.0080 cp         1 72D       0.028000
     11 CAA          2.6170    -0.0120    -0.0080 cp         1 72D      -0.054000
     12 CAB          3.3610    -1.0910     0.4700 ca         1 72D      -0.092000
     13 CAC          4.7470    -1.0580     0.4570 ca         1 72D      -0.112000
     14 CAD          5.4140     0.0560    -0.0380 ca         1 72D      -0.099000
     15 CAE          4.6840     1.1350    -0.5180 ca         1 72D      -0.112000
     16 CAF          3.2980     1.1020    -0.5020 ca         1 72D      -0.092000
     17 HAH          0.9170     2.0420     0.4940 ha         1 72D       0.121500
     18 HAI         -1.5230     2.0010     0.5020 ha         1 72D       0.137000
     19 HAP         -3.6030    -0.0510    -2.1830 hn         1 72D       0.473000
     20 HAQ         -4.6940     0.9530    -1.4220 hn         1 72D       0.473000
     21 HAK         -1.4490    -2.1970    -0.4270 ha         1 72D       0.137000
     22 HAL          0.9930    -2.1390    -0.4670 ha         1 72D       0.121500
     23 HAB          2.8550    -1.9580     0.8780 ha         1 72D       0.115500
     24 HAC          5.3060    -1.9010     0.8410 ha         1 72D       0.116000
     25 HAD          6.4960     0.0820    -0.0490 ha         1 72D       0.115000
     26 HAE          5.1940     2.0040    -0.9130 ha         1 72D       0.116000
     27 HAF          2.7440     1.9440    -0.8980 ha         1 72D       0.115500
@<TRIPOS>BOND
     1     1     2 ar  
     2     1    10 ar  
     3     1    17 1   
     4     2     3 ar  
     5     2    18 1   
     6     3     4 1   
     7     3     8 ar  
     8     4     5 2   
     9     4     6 2   
    10     4     7 1   
    11     7    19 1   
    12     7    20 1   
    13     8     9 ar  
    14     8    21 1   
    15     9    10 ar  
    16     9    22 1   
    17    10    11 1   
    18    11    12 ar  
    19    11    16 ar  
    20    12    13 ar  
    21    12    23 1   
    22    13    14 ar  
    23    13    24 1   
    24    14    15 ar  
    25    14    25 1   
    26    15    16 ar  
    27    15    26 1   
    28    16    27 1   
@<TRIPOS>SUBSTRUCTURE
     1 72D         1 TEMP              0 ****  ****    0 ROOT
