@<TRIPOS>MOLECULE
72E
   30    31     1     0     0
SMALL
bcc


@<TRIPOS>ATOM
      1 CAQ         -2.6630     2.2550     0.5870 c3         1 72E      -0.051800
      2 CAF         -3.2610     0.9300     0.2060 ca         1 72E      -0.051300
      3 CAE         -4.6480     0.7990     0.1530 ca         1 72E      -0.132000
      4 CAD         -5.2550    -0.4070    -0.1660 ca         1 72E      -0.116000
      5 CAC         -4.4740    -1.5220    -0.4290 ca         1 72E      -0.133000
      6 CAB         -3.0930    -1.4120    -0.3750 ca         1 72E      -0.111000
      7 CAA         -2.4760    -0.1990    -0.0690 cp         1 72E      -0.057000
      8 CAG         -0.9970    -0.1550    -0.0310 cp         1 72E       0.027000
      9 CAH         -0.2930    -1.0550     0.7660 ca         1 72E      -0.142500
     10 CAI          1.0930    -1.0520     0.7960 ca         1 72E      -0.027500
     11 CAJ          1.7810    -0.1390     0.0140 ca         1 72E      -0.274500
     12 SAM          3.5480    -0.0970     0.0520 sy         1 72E       1.267200
     13 OAN          4.0030     1.2860     0.0950 o          1 72E      -0.615800
     14 OAO          3.9940    -1.0030     1.1020 o          1 72E      -0.615800
     15 NAP          3.9120    -0.6410    -1.4640 n8         1 72E      -0.892700
     16 CAK          1.1040     0.7690    -0.7930 ca         1 72E      -0.027500
     17 CAL         -0.2780     0.7540    -0.8110 ca         1 72E      -0.142500
     18 H1          -2.3020     2.8040    -0.2850 hc         1 72E       0.046367
     19 H2          -3.4050     2.8830     1.0760 hc         1 72E       0.046367
     20 H3          -1.8180     2.1430     1.2660 hc         1 72E       0.046367
     21 H4          -5.2640     1.6620     0.3760 ha         1 72E       0.132000
     22 H5          -6.3350    -0.4740    -0.2000 ha         1 72E       0.133000
     23 H6          -4.9320    -2.4700    -0.6770 ha         1 72E       0.134000
     24 H7          -2.4790    -2.2790    -0.5870 ha         1 72E       0.133000
     25 H8          -0.8320    -1.7640     1.3830 ha         1 72E       0.141000
     26 H9           1.6200    -1.7550     1.4260 ha         1 72E       0.155500
     27 H10          4.8660    -0.4060    -1.7240 hn         1 72E       0.417300
     28 H11          3.7580    -1.6390    -1.5690 hn         1 72E       0.417300
     29 H12          1.6420     1.4760    -1.4100 ha         1 72E       0.155500
     30 H13         -0.8020     1.4500    -1.4530 ha         1 72E       0.141000
@<TRIPOS>BOND
     1     1     2 1   
     2     1    18 1   
     3     1    19 1   
     4     1    20 1   
     5     2     3 ar  
     6     2     7 ar  
     7     3     4 ar  
     8     3    21 1   
     9     4     5 ar  
    10     4    22 1   
    11     5     6 ar  
    12     5    23 1   
    13     6     7 ar  
    14     6    24 1   
    15     7     8 1   
    16     8     9 ar  
    17     8    17 ar  
    18     9    10 ar  
    19     9    25 1   
    20    10    11 ar  
    21    10    26 1   
    22    11    12 1   
    23    11    16 ar  
    24    12    13 2   
    25    12    14 2   
    26    12    15 1   
    27    15    27 1   
    28    15    28 1   
    29    16    17 ar  
    30    16    29 1   
    31    17    30 1   
@<TRIPOS>SUBSTRUCTURE
     1 72E         1 TEMP              0 ****  ****    0 ROOT
