@<TRIPOS>MOLECULE
72E
   30    31     1     0     0
SMALL
No Charge or Current Charge


@<TRIPOS>ATOM
      1 CAQ         -2.7180     2.2480     0.6770 c3         1 72E      -0.051800
      2 CAF         -3.2930     0.9030     0.2420 ca         1 72E      -0.051300
      3 CAE         -4.6950     0.7630     0.1980 ca         1 72E      -0.114000
      4 CAD         -5.2850    -0.4600    -0.1580 ca         1 72E      -0.098000
      5 CAC         -4.4760    -1.5610    -0.4710 ca         1 72E      -0.115000
      6 CAB         -3.0790    -1.4340    -0.4350 ca         1 72E      -0.093000
      7 CAA         -2.4610    -0.2070    -0.0900 cp         1 72E      -0.057000
      8 CAG         -0.9690    -0.1240    -0.0780 cp         1 72E       0.027000
      9 CAH         -0.2050    -1.0450     0.6770 ca         1 72E      -0.124500
     10 CAI          1.1990    -0.9880     0.6920 ca         1 72E      -0.009500
     11 CAJ          1.8710    -0.0030    -0.0620 ca         1 72E      -0.274500
     12 SAM          3.6640     0.0800    -0.0540 sy         1 72E       1.125600
     13 OAN          4.1190     1.4300    -0.3870 o          1 72E      -0.545000
     14 OAO          4.1970    -0.6830     1.0720 o          1 72E      -0.545000
     15 NAP          4.0470    -0.8320    -1.3570 n8         1 72E      -1.003100
     16 CAK          1.1270     0.9150    -0.8300 ca         1 72E      -0.009500
     17 CAL         -0.2770     0.8490    -0.8380 ca         1 72E      -0.124500
     18 H1          -2.4670     2.8680    -0.1910 hc         1 72E       0.046367
     19 H2          -3.4340     2.8120     1.2880 hc         1 72E       0.046367
     20 H3          -1.8120     2.1240     1.2800 hc         1 72E       0.046367
     21 H4          -5.3350     1.6070     0.4480 ha         1 72E       0.114000
     22 H5          -6.3680    -0.5550    -0.1860 ha         1 72E       0.115000
     23 H6          -4.9300    -2.5120    -0.7440 ha         1 72E       0.116000
     24 H7          -2.4620    -2.2940    -0.6880 ha         1 72E       0.115000
     25 H8          -0.7120    -1.8070     1.2650 ha         1 72E       0.123000
     26 H9           1.7560    -1.7080     1.2900 ha         1 72E       0.137500
     27 H10          4.7130    -1.4830    -0.9470 hn         1 72E       0.472500
     28 H11          3.2070    -1.3910    -1.4830 hn         1 72E       0.472500
     29 H12          1.6290     1.6760    -1.4260 ha         1 72E       0.137500
     30 H13         -0.8370     1.5530    -1.4470 ha         1 72E       0.123000
@<TRIPOS>BOND
     1     1     2 1   
     2     1    18 1   
     3     1    19 1   
     4     1    20 1   
     5     2     3 ar  
     6     2     7 ar  
     7     3     4 ar  
     8     3    21 1   
     9     4     5 ar  
    10     4    22 1   
    11     5     6 ar  
    12     5    23 1   
    13     6     7 ar  
    14     6    24 1   
    15     7     8 1   
    16     8     9 ar  
    17     8    17 ar  
    18     9    10 ar  
    19     9    25 1   
    20    10    11 ar  
    21    10    26 1   
    22    11    12 1   
    23    11    16 ar  
    24    12    13 2   
    25    12    14 2   
    26    12    15 1   
    27    15    27 1   
    28    15    28 1   
    29    16    17 ar  
    30    16    29 1   
    31    17    30 1   
@<TRIPOS>SUBSTRUCTURE
     1 72E         1 TEMP              0 ****  ****    0 ROOT
