@<TRIPOS>MOLECULE
72F
   70    73     1     0     0
SMALL
bcc


@<TRIPOS>ATOM
      1 C7          -2.6080     0.9640     0.2920 cc         1 72F       0.058100
      2 C10          0.3740    -1.7570     0.2340 ca         1 72F       0.047000
      3 C6          -2.5240     2.3720     0.0620 ca         1 72F      -0.306400
      4 C4          -3.1360     4.9450    -0.2100 ca         1 72F       0.660900
      5 C5          -1.5450     3.3090    -0.2270 ca         1 72F       0.498200
      6 C1          -6.8280     2.2320    -0.6320 c3         1 72F       0.113400
      7 N1          -4.1580     4.1520     0.0620 nb         1 72F      -0.719000
      8 O1           4.0720     0.3160    -0.2220 o          1 72F      -0.571100
      9 N2          -1.8580     4.5910    -0.3620 nb         1 72F      -0.723000
     10 C3          -3.8260     2.8790     0.1910 ca         1 72F       0.454800
     11 C11          1.7020    -1.3310     0.1350 ca         1 72F      -0.122000
     12 C13          4.6750    -0.7420    -0.1810 c          1 72F       0.687700
     13 C12          2.7310    -2.2660     0.1150 ca         1 72F       0.060600
     14 N3           4.0910    -1.9480     0.0130 ns         1 72F      -0.466100
     15 C8          -1.5580     0.0260     0.2770 cg         1 72F      -0.130300
     16 N5          -3.5860    -1.5550    -2.3530 n1         1 72F      -0.334800
     17 C30         -4.3000    -1.4520    -1.4580 c1         1 72F       0.210700
     18 C27         -5.2130    -1.3210    -0.3310 c3         1 72F      -0.081600
     19 C28         -5.6790    -2.7240     0.0860 c          1 72F       0.669100
     20 O2          -4.8650    -3.5650     0.4260 o          1 72F      -0.582100
     21 N4          -6.9960    -2.9110     0.0610 ns         1 72F      -0.565900
     22 C29         -7.6030    -4.1600     0.4660 c3         1 72F       0.091300
     23 C25         -3.9350     0.6900     0.5470 cd         1 72F      -0.045300
     24 N           -4.6700     1.8510     0.4810 na         1 72F      -0.156100
     25 O           -8.1920     2.3350    -0.3350 os         1 72F      -0.411600
     26 C           -8.9800     2.5490    -1.4800 c3         1 72F       0.123700
     27 C23          0.0430    -3.1190     0.3160 ca         1 72F      -0.066300
     28 C24         -1.3830    -3.5630     0.4060 c3         1 72F      -0.045800
     29 C22          1.0930    -4.0290     0.3020 ca         1 72F      -0.105000
     30 C21          2.4110    -3.6220     0.2030 ca         1 72F      -0.173000
     31 C14          6.1620    -0.7830    -0.3370 ca         1 72F      -0.160600
     32 C20          6.8360    -1.8670    -0.8950 ca         1 72F      -0.078000
     33 C19          8.2130    -1.8320    -1.0430 ca         1 72F      -0.142000
     34 C18          8.9330    -0.7210    -0.6340 ca         1 72F      -0.057000
     35 C16          8.2620     0.3670    -0.0890 ca         1 72F      -0.205300
     36 C15          6.8820     0.3410     0.0510 ca         1 72F      -0.027000
     37 C17          9.0150     1.5690     0.3940 c3         1 72F       0.723200
     38 F            9.1230     1.5750     1.7310 f          1 72F      -0.231967
     39 F1          10.2560     1.6240    -0.0960 f          1 72F      -0.231967
     40 F2           8.4040     2.7100     0.0540 f          1 72F      -0.231967
     41 H1          -3.3590     5.9990    -0.3230 h5         1 72F       0.050100
     42 H2          -0.5030     3.0310    -0.3500 h4         1 72F       0.039100
     43 H3          -6.4560     3.1430    -1.1200 h1         1 72F       0.038200
     44 H4          -6.6330     1.3980    -1.3210 h1         1 72F       0.038200
     45 H5          -6.2550     2.8610     1.3510 h1         1 72F       0.074700
     46 H6          -6.4810     1.1300     1.1920 h1         1 72F       0.074700
     47 H7           1.9050    -0.2740     0.0780 ha         1 72F       0.172000
     48 H8           4.7080    -2.7360     0.1270 hn         1 72F       0.318500
     49 H9          -6.0580    -0.7190    -0.6730 hc         1 72F       0.075700
     50 H10         -7.5990    -2.1630    -0.2370 hn         1 72F       0.321500
     51 H11         -7.2210    -4.9940    -0.1220 h1         1 72F       0.046033
     52 H12         -7.4240    -4.3670     1.5210 h1         1 72F       0.046033
     53 H13         -8.6740    -4.0850     0.3050 h1         1 72F       0.046033
     54 H14         -5.2370    -0.5690     1.6840 hc         1 72F       0.081700
     55 H15         -3.7100    -1.2850     1.2130 hc         1 72F       0.081700
     56 H16        -10.0210     2.6060    -1.1650 h1         1 72F       0.033367
     57 H17         -8.7190     3.4840    -1.9890 h1         1 72F       0.033367
     58 H18         -8.8800     1.7300    -2.2020 h1         1 72F       0.033367
     59 H19         -1.9560    -3.2500    -0.4670 hc         1 72F       0.050367
     60 H20         -1.4530    -4.6480     0.4800 hc         1 72F       0.050367
     61 H21         -1.8840    -3.1350     1.2760 hc         1 72F       0.050367
     62 H22          0.8770    -5.0880     0.3650 ha         1 72F       0.134000
     63 H23          3.1980    -4.3660     0.1900 ha         1 72F       0.126000
     64 H24          6.2980    -2.7390    -1.2470 ha         1 72F       0.137000
     65 H25          8.7280    -2.6740    -1.4860 ha         1 72F       0.144000
     66 H26         10.0080    -0.7130    -0.7540 ha         1 72F       0.153000
     67 H27          6.3530     1.1880     0.4700 ha         1 72F       0.170000
     68 C2          -6.0950     2.0130     0.6840 c3         1 72F       0.047300
     69 C26         -4.5160    -0.6390     0.8670 c3         1 72F      -0.009200
     70 C9          -0.6600    -0.7820     0.2570 ch         1 72F      -0.082000
@<TRIPOS>BOND
     1     1     3 1   
     2     1    15 1   
     3     1    23 2   
     4     2    11 ar  
     5     2    27 ar  
     6     2    70 1   
     7     3     5 ar  
     8     3    10 ar  
     9     4     7 ar  
    10     4     9 ar  
    11     4    41 1   
    12     5     9 ar  
    13     5    42 1   
    14     6    25 1   
    15     6    43 1   
    16     6    44 1   
    17     6    68 1   
    18     7    10 ar  
    19     8    12 2   
    20    10    24 1   
    21    11    13 ar  
    22    11    47 1   
    23    12    14 1   
    24    12    31 1   
    25    13    14 1   
    26    13    30 ar  
    27    14    48 1   
    28    15    70 3   
    29    16    17 3   
    30    17    18 1   
    31    18    19 1   
    32    18    49 1   
    33    18    69 1   
    34    19    20 2   
    35    19    21 1   
    36    21    22 1   
    37    21    50 1   
    38    22    51 1   
    39    22    52 1   
    40    22    53 1   
    41    23    24 1   
    42    23    69 1   
    43    24    68 1   
    44    25    26 1   
    45    26    56 1   
    46    26    57 1   
    47    26    58 1   
    48    27    28 1   
    49    27    29 ar  
    50    28    59 1   
    51    28    60 1   
    52    28    61 1   
    53    29    30 ar  
    54    29    62 1   
    55    30    63 1   
    56    31    32 ar  
    57    31    36 ar  
    58    32    33 ar  
    59    32    64 1   
    60    33    34 ar  
    61    33    65 1   
    62    34    35 ar  
    63    34    66 1   
    64    35    36 ar  
    65    35    37 1   
    66    36    67 1   
    67    37    38 1   
    68    37    39 1   
    69    37    40 1   
    70    45    68 1   
    71    46    68 1   
    72    54    69 1   
    73    55    69 1   
@<TRIPOS>SUBSTRUCTURE
     1 72F         1 TEMP              0 ****  ****    0 ROOT
