@<TRIPOS>MOLECULE
72F
   70    73     1     0     0
SMALL
No Charge or Current Charge


@<TRIPOS>ATOM
      1 C7          -2.6420     0.9670     0.4540 cc         1 72F       0.058100
      2 C10          0.3850    -1.7410     0.2830 ca         1 72F       0.047000
      3 C6          -2.6160     2.3870     0.2870 ca         1 72F      -0.175800
      4 C4          -3.0620     4.9850     0.0510 ca         1 72F       0.134900
      5 C5          -1.5420     3.2570     0.0510 ca         1 72F       0.169900
      6 C1          -6.9200     2.2520    -0.5820 c3         1 72F       0.136600
      7 N1          -4.1410     4.1960     0.2780 nb         1 72F      -0.193000
      8 O1           4.2270     0.3960    -0.0190 o          1 72F      -0.571100
      9 N2          -1.7730     4.5830    -0.0690 nb         1 72F      -0.197000
     10 C3          -3.8950     2.8740     0.3950 ca         1 72F       0.126500
     11 C11          1.7250    -1.3180     0.1760 ca         1 72F      -0.104000
     12 C13          4.8090    -0.6830    -0.0600 c          1 72F       0.620700
     13 C12          2.7760    -2.2590     0.1080 ca         1 72F      -0.032000
     14 N3           4.1510    -1.9070    -0.0020 ns         1 72F      -0.140000
     15 C8          -1.5390     0.0730     0.4030 cg         1 72F      -0.130300
     16 N5          -3.5950    -1.5500    -2.4090 n1         1 72F      -0.424000
     17 C30         -4.3040    -1.4870    -1.4880 c1         1 72F       0.299900
     18 C27         -5.2210    -1.3810    -0.3500 c3         1 72F      -0.081600
     19 C28         -5.8240    -2.7520    -0.0260 c          1 72F       0.602100
     20 O2          -5.1490    -3.7000     0.3510 o          1 72F      -0.582100
     21 N4          -7.1910    -2.8550    -0.1820 ns         1 72F      -0.498900
     22 C29         -7.9590    -4.0750     0.0780 c3         1 72F       0.091300
     23 C25         -3.9730     0.6240     0.6640 cd         1 72F      -0.045300
     24 N           -4.7560     1.8070     0.6230 na         1 72F      -0.185400
     25 O           -8.3390     2.2730    -0.3440 os         1 72F      -0.458000
     26 C           -9.1350     2.5310    -1.5140 c3         1 72F       0.146900
     27 C23          0.0790    -3.1230     0.3240 ca         1 72F      -0.066300
     28 C24         -1.3610    -3.6230     0.4400 c3         1 72F      -0.045800
     29 C22          1.1290    -4.0580     0.2560 ca         1 72F      -0.087000
     30 C21          2.4620    -3.6280     0.1490 ca         1 72F      -0.155000
     31 C14          6.3210    -0.7500    -0.1800 ca         1 72F      -0.160600
     32 C20          7.0210    -1.9800    -0.2280 ca         1 72F      -0.060000
     33 C19          8.4210    -1.9970    -0.3330 ca         1 72F      -0.124000
     34 C18          9.1450    -0.7970    -0.3950 ca         1 72F      -0.039000
     35 C16          8.4710     0.4410    -0.3580 ca         1 72F      -0.205300
     36 C15          7.0630     0.4530    -0.2440 ca         1 72F      -0.009000
     37 C17          9.2450     1.7620    -0.4160 c3         1 72F       0.359300
     38 F            9.4180     2.2830     0.8200 f          1 72F      -0.110667
     39 F1          10.4750     1.6240    -0.9620 f          1 72F      -0.110667
     40 F2           8.5990     2.6970    -1.1510 f          1 72F      -0.110667
     41 H1          -3.2510     6.0530    -0.0450 h5         1 72F       0.050100
     42 H2          -0.5150     2.9090    -0.0400 h4         1 72F       0.039100
     43 H3          -6.5760     3.2150    -0.9800 h1         1 72F       0.038200
     44 H4          -6.6610     1.4680    -1.3060 h1         1 72F       0.038200
     45 H5          -6.4170     2.7960     1.4510 h1         1 72F       0.074700
     46 H6          -6.6430     1.0590     1.2020 h1         1 72F       0.074700
     47 H7           1.9240    -0.2520     0.1460 ha         1 72F       0.154000
     48 H8           4.7670    -2.7070    -0.0450 hn         1 72F       0.152000
     49 H9          -6.0340    -0.7180    -0.6600 hc         1 72F       0.075700
     50 H10         -7.6870    -2.0280    -0.4960 hn         1 72F       0.321500
     51 H11         -7.6040    -4.8830    -0.5750 h1         1 72F       0.046033
     52 H12         -7.8360    -4.3740     1.1270 h1         1 72F       0.046033
     53 H13         -9.0220    -3.8900    -0.1230 h1         1 72F       0.046033
     54 H14         -5.2760    -0.7200     1.7220 hc         1 72F       0.081700
     55 H15         -3.7570    -1.4340     1.2590 hc         1 72F       0.081700
     56 H16        -10.2020     2.5330    -1.2560 h1         1 72F       0.033367
     57 H17         -8.8870     3.5080    -1.9480 h1         1 72F       0.033367
     58 H18         -8.9690     1.7590    -2.2770 h1         1 72F       0.033367
     59 H19         -1.9630    -3.2930    -0.4140 hc         1 72F       0.050367
     60 H20         -1.4130    -4.7180     0.4710 hc         1 72F       0.050367
     61 H21         -1.8380    -3.2490     1.3540 hc         1 72F       0.050367
     62 H22          0.9140    -5.1240     0.2860 ha         1 72F       0.116000
     63 H23          3.2550    -4.3710     0.0980 ha         1 72F       0.108000
     64 H24          6.5010    -2.9340    -0.1820 ha         1 72F       0.119000
     65 H25          8.9500    -2.9470    -0.3640 ha         1 72F       0.126000
     66 H26         10.2310    -0.8380    -0.4700 ha         1 72F       0.135000
     67 H27          6.5430     1.4090    -0.2010 ha         1 72F       0.152000
     68 C2          -6.2180     1.9670     0.7600 c3         1 72F       0.076600
     69 C26         -4.5460    -0.7600     0.9040 c3         1 72F      -0.009200
     70 C9          -0.6430    -0.7530     0.3480 ch         1 72F      -0.082000
@<TRIPOS>BOND
     1     1     3 1   
     2     1    15 1   
     3     1    23 2   
     4     2    11 ar  
     5     2    27 ar  
     6     2    70 1   
     7     3     5 ar  
     8     3    10 ar  
     9     4     7 ar  
    10     4     9 ar  
    11     4    41 1   
    12     5     9 ar  
    13     5    42 1   
    14     6    25 1   
    15     6    43 1   
    16     6    44 1   
    17     6    68 1   
    18     7    10 ar  
    19     8    12 2   
    20    10    24 1   
    21    11    13 ar  
    22    11    47 1   
    23    12    14 1   
    24    12    31 1   
    25    13    14 1   
    26    13    30 ar  
    27    14    48 1   
    28    15    70 3   
    29    16    17 3   
    30    17    18 1   
    31    18    19 1   
    32    18    49 1   
    33    18    69 1   
    34    19    20 2   
    35    19    21 1   
    36    21    22 1   
    37    21    50 1   
    38    22    51 1   
    39    22    52 1   
    40    22    53 1   
    41    23    24 1   
    42    23    69 1   
    43    24    68 1   
    44    25    26 1   
    45    26    56 1   
    46    26    57 1   
    47    26    58 1   
    48    27    28 1   
    49    27    29 ar  
    50    28    59 1   
    51    28    60 1   
    52    28    61 1   
    53    29    30 ar  
    54    29    62 1   
    55    30    63 1   
    56    31    32 ar  
    57    31    36 ar  
    58    32    33 ar  
    59    32    64 1   
    60    33    34 ar  
    61    33    65 1   
    62    34    35 ar  
    63    34    66 1   
    64    35    36 ar  
    65    35    37 1   
    66    36    67 1   
    67    37    38 1   
    68    37    39 1   
    69    37    40 1   
    70    45    68 1   
    71    46    68 1   
    72    54    69 1   
    73    55    69 1   
@<TRIPOS>SUBSTRUCTURE
     1 72F         1 TEMP              0 ****  ****    0 ROOT
