@<TRIPOS>MOLECULE
72G
   29    30     1     0     0
SMALL
No Charge or Current Charge


@<TRIPOS>ATOM
      1 OAR          6.3350     1.4920     0.5410 o          1 72G      -0.512100
      2 CAQ          5.1090     1.5430     0.5520 c          1 72G       0.584500
      3 CAK          4.2280     0.3790     0.1850 ca         1 72G      -0.202600
      4 CAL          2.8260     0.5220     0.2250 ca         1 72G      -0.053000
      5 CAJ          4.7860    -0.8590    -0.1970 ca         1 72G      -0.041000
      6 CAI          3.9490    -1.9340    -0.5320 ca         1 72G      -0.126000
      7 CAH          2.5530    -1.7840    -0.4880 ca         1 72G      -0.065000
      8 CAG          1.9620    -0.5530    -0.1090 cp         1 72G      -0.064000
      9 CAE          0.4730    -0.3920    -0.0630 cp         1 72G       0.024000
     10 CAD         -0.3660    -1.4580     0.3460 ca         1 72G      -0.124500
     11 CAC         -1.7630    -1.3130     0.3910 ca         1 72G      -0.007500
     12 CAB         -2.3560    -0.0890     0.0230 ca         1 72G      -0.269500
     13 SAM         -4.1410     0.1020     0.0780 sy         1 72G       1.126600
     14 OAN         -4.5750     1.2170    -0.7620 o          1 72G      -0.543500
     15 OAO         -4.8080    -1.1980     0.0530 o          1 72G      -0.543500
     16 NAP         -4.4090     0.6400     1.5940 n8         1 72G      -1.003100
     17 CAA         -1.5400     0.9850    -0.3850 ca         1 72G      -0.007500
     18 CAF         -0.1440     0.8310    -0.4260 ca         1 72G      -0.124500
     19 HAQ          4.5820     2.4790     0.8410 h4         1 72G      -0.009800
     20 HAL          2.3980     1.4740     0.5340 ha         1 72G       0.118000
     21 HAJ          5.8670    -0.9900    -0.2360 ha         1 72G       0.136000
     22 HAI          4.3820    -2.8860    -0.8290 ha         1 72G       0.123000
     23 HAH          1.9250    -2.6270    -0.7640 ha         1 72G       0.120000
     24 HAD          0.0710    -2.4070     0.6470 ha         1 72G       0.121000
     25 HAC         -2.3780    -2.1510     0.7160 ha         1 72G       0.138500
     26 HAP         -4.9680     1.4670     1.3990 hn         1 72G       0.473500
     27 HAR         -5.1130    -0.0260     1.9030 hn         1 72G       0.473500
     28 HAA         -1.9820     1.9380    -0.6720 ha         1 72G       0.138500
     29 HAF          0.4640     1.6680    -0.7580 ha         1 72G       0.121000
@<TRIPOS>BOND
     1     1     2 2   
     2     2     3 1   
     3     2    19 1   
     4     3     4 ar  
     5     3     5 ar  
     6     4     8 ar  
     7     4    20 1   
     8     5     6 ar  
     9     5    21 1   
    10     6     7 ar  
    11     6    22 1   
    12     7     8 ar  
    13     7    23 1   
    14     8     9 1   
    15     9    10 ar  
    16     9    18 ar  
    17    10    11 ar  
    18    10    24 1   
    19    11    12 ar  
    20    11    25 1   
    21    12    13 1   
    22    12    17 ar  
    23    13    14 2   
    24    13    15 2   
    25    13    16 1   
    26    16    26 1   
    27    16    27 1   
    28    17    18 ar  
    29    17    28 1   
    30    18    29 1   
@<TRIPOS>SUBSTRUCTURE
     1 72G         1 TEMP              0 ****  ****    0 ROOT
