@<TRIPOS>MOLECULE
72G
   29    30     1     0     0
SMALL
bcc


@<TRIPOS>ATOM
      1 OAR          6.1860     1.4760     0.6300 o          1 72G      -0.512100
      2 CAQ          4.9780     1.4860     0.6250 c          1 72G       0.584500
      3 CAK          4.1380     0.3480     0.2170 ca         1 72G      -0.202600
      4 CAL          2.7560     0.4970     0.2580 ca         1 72G      -0.071000
      5 CAJ          4.7010    -0.8590    -0.1960 ca         1 72G      -0.059000
      6 CAI          3.8730    -1.9030    -0.5630 ca         1 72G      -0.144000
      7 CAH          2.4920    -1.7500    -0.5190 ca         1 72G      -0.083000
      8 CAG          1.9130    -0.5490    -0.1080 cp         1 72G      -0.064000
      9 CAE          0.4470    -0.3930    -0.0650 cp         1 72G       0.024000
     10 CAD         -0.3700    -1.4570     0.3170 ca         1 72G      -0.142500
     11 CAC         -1.7480    -1.3220     0.3470 ca         1 72G      -0.025500
     12 CAB         -2.3160    -0.1050     0.0000 ca         1 72G      -0.269500
     13 SAM         -4.0750     0.0810     0.0220 sy         1 72G       1.268200
     14 OAN         -4.4780     1.0090    -1.0250 o          1 72G      -0.614300
     15 OAO         -4.6590    -1.2530     0.0290 o          1 72G      -0.614300
     16 NAP         -4.2950     0.8880     1.4460 n8         1 72G      -0.892700
     17 CAA         -1.5250     0.9720    -0.3790 ca         1 72G      -0.025500
     18 CAF         -0.1510     0.8220    -0.4100 ca         1 72G      -0.142500
     19 HAQ          4.4150     2.3830     0.9360 h4         1 72G      -0.009800
     20 HAL          2.3380     1.4370     0.6020 ha         1 72G       0.136000
     21 HAJ          5.7770    -0.9750    -0.2280 ha         1 72G       0.154000
     22 HAI          4.2950    -2.8420    -0.8930 ha         1 72G       0.141000
     23 HAH          1.8620    -2.5740    -0.8300 ha         1 72G       0.138000
     24 HAD          0.0680    -2.4010     0.6100 ha         1 72G       0.139000
     25 HAC         -2.3610    -2.1610     0.6450 ha         1 72G       0.156500
     26 HAP         -5.2000     1.3500     1.4720 hn         1 72G       0.418300
     27 HAR         -4.1840     0.2900     2.2580 hn         1 72G       0.418300
     28 HAA         -1.9670     1.9170    -0.6620 ha         1 72G       0.156500
     29 HAF          0.4580     1.6570    -0.7320 ha         1 72G       0.139000
@<TRIPOS>BOND
     1     1     2 2   
     2     2     3 1   
     3     2    19 1   
     4     3     4 ar  
     5     3     5 ar  
     6     4     8 ar  
     7     4    20 1   
     8     5     6 ar  
     9     5    21 1   
    10     6     7 ar  
    11     6    22 1   
    12     7     8 ar  
    13     7    23 1   
    14     8     9 1   
    15     9    10 ar  
    16     9    18 ar  
    17    10    11 ar  
    18    10    24 1   
    19    11    12 ar  
    20    11    25 1   
    21    12    13 1   
    22    12    17 ar  
    23    13    14 2   
    24    13    15 2   
    25    13    16 1   
    26    16    26 1   
    27    16    27 1   
    28    17    18 ar  
    29    17    28 1   
    30    18    29 1   
@<TRIPOS>SUBSTRUCTURE
     1 72G         1 TEMP              0 ****  ****    0 ROOT
