@<TRIPOS>MOLECULE
72H
   32    34     1     0     0
SMALL
bcc


@<TRIPOS>ATOM
      1 CAL         -2.2270    -0.7570    -0.2150 ca         1 72H      -0.059000
      2 CAK         -3.6240    -0.5940    -0.1510 ca         1 72H      -0.150300
      3 CAP         -4.5300    -1.6270    -0.4820 ca         1 72H      -0.107000
      4 CAO         -5.8790    -1.4110    -0.4040 ca         1 72H      -0.123000
      5 CAN         -6.3770    -0.1560     0.0060 ca         1 72H      -0.115000
      6 CAM         -5.5210     0.8630     0.3310 ca         1 72H      -0.166300
      7 CAJ         -4.1250     0.6670     0.2580 ca         1 72H       0.402600
      8 NAI         -3.3000     1.6920     0.5840 nb         1 72H      -0.657000
      9 CAH         -2.0130     1.5040     0.5080 ca         1 72H       0.432200
     10 CAG         -1.4000     0.2880     0.1080 cp         1 72H      -0.174300
     11 CAE          0.0670     0.1750     0.0590 cp         1 72H       0.028000
     12 CAD          0.8480     1.2460    -0.3740 ca         1 72H      -0.142500
     13 CAC          2.2290     1.1450    -0.4260 ca         1 72H      -0.025500
     14 CAB          2.8330    -0.0400    -0.0360 ca         1 72H      -0.269500
     15 SAQ          4.5950    -0.1970    -0.0960 sy         1 72H       1.267200
     16 OAR          4.9480    -1.5420    -0.5290 o          1 72H      -0.614300
     17 OAS          5.1190     0.9330    -0.8500 o          1 72H      -0.614300
     18 NAT          4.9730    -0.1290     1.5100 n8         1 72H      -0.894700
     19 CAA          2.0780    -1.1220     0.3980 ca         1 72H      -0.025500
     20 CAF          0.7020    -1.0090     0.4440 ca         1 72H      -0.142500
     21 HAL         -1.8220    -1.7080    -0.5450 ha         1 72H       0.141000
     22 HAP         -4.1420    -2.5880    -0.7970 ha         1 72H       0.135000
     23 HAO         -6.5710    -2.2030    -0.6570 ha         1 72H       0.136000
     24 HAN         -7.4460    -0.0010     0.0620 ha         1 72H       0.136000
     25 HAM         -5.8940     1.8280     0.6470 ha         1 72H       0.151000
     26 HAH         -1.3860     2.3440     0.7930 h4         1 72H       0.022100
     27 HAD          0.3800     2.1660    -0.7000 ha         1 72H       0.140000
     28 HAC          2.8140     1.9830    -0.7760 ha         1 72H       0.156500
     29 HAA          2.5500    -2.0450     0.7090 ha         1 72H       0.156500
     30 HAF          0.1180    -1.8470     0.8020 ha         1 72H       0.140000
     31 HAV          4.9150     0.8110     1.8880 hn         1 72H       0.418800
     32 HAT          5.8890    -0.5270     1.6930 hn         1 72H       0.418800
@<TRIPOS>BOND
     1     1     2 ar  
     2     1    10 ar  
     3     1    21 1   
     4     2     3 ar  
     5     2     7 ar  
     6     3     4 ar  
     7     3    22 1   
     8     4     5 ar  
     9     4    23 1   
    10     5     6 ar  
    11     5    24 1   
    12     6     7 ar  
    13     6    25 1   
    14     7     8 ar  
    15     8     9 ar  
    16     9    10 ar  
    17     9    26 1   
    18    10    11 1   
    19    11    12 ar  
    20    11    20 ar  
    21    12    13 ar  
    22    12    27 1   
    23    13    14 ar  
    24    13    28 1   
    25    14    15 1   
    26    14    19 ar  
    27    15    16 2   
    28    15    17 2   
    29    15    18 1   
    30    18    31 1   
    31    18    32 1   
    32    19    20 ar  
    33    19    29 1   
    34    20    30 1   
@<TRIPOS>SUBSTRUCTURE
     1 72H         1 TEMP              0 ****  ****    0 ROOT
