@<TRIPOS>MOLECULE
72H
   32    34     1     0     0
SMALL
No Charge or Current Charge


@<TRIPOS>ATOM
      1 CAL         -2.3050    -0.7460    -0.2060 ca         1 72H      -0.041000
      2 CAK         -3.6980    -0.5680    -0.1480 ca         1 72H      -0.085000
      3 CAP         -4.5610    -1.6290    -0.4850 ca         1 72H      -0.089000
      4 CAO         -5.9520    -1.4490    -0.4260 ca         1 72H      -0.105000
      5 CAN         -6.4820    -0.2100    -0.0320 ca         1 72H      -0.097000
      6 CAM         -5.6180     0.8490     0.3030 ca         1 72H      -0.083000
      7 CAJ         -4.2210     0.6880     0.2510 ca         1 72H       0.272000
      8 NAI         -3.4130     1.7230     0.5770 nb         1 72H      -0.657000
      9 CAH         -2.0720     1.5430     0.5160 ca         1 72H       0.366900
     10 CAG         -1.4490     0.3290     0.1320 cp         1 72H      -0.109000
     11 CAE          0.0420     0.1940     0.0880 cp         1 72H       0.028000
     12 CAD          0.8670     1.2940    -0.2540 ca         1 72H      -0.124500
     13 CAC          2.2670     1.1710    -0.2970 ca         1 72H      -0.007500
     14 CAB          2.8760    -0.0620     0.0050 ca         1 72H      -0.269500
     15 SAQ          4.6640    -0.2240    -0.0470 sy         1 72H       1.125600
     16 OAR          5.0600    -1.6250    -0.1760 o          1 72H      -0.543500
     17 OAS          5.2620     0.8330    -0.8580 o          1 72H      -0.543500
     18 NAT          5.1140     0.1610     1.4730 n8         1 72H      -1.005100
     19 CAA          2.0740    -1.1670     0.3520 ca         1 72H      -0.007500
     20 CAF          0.6760    -1.0370     0.3900 ca         1 72H      -0.124500
     21 HAL         -1.8920    -1.7010    -0.5240 ha         1 72H       0.123000
     22 HAP         -4.1570    -2.5910    -0.7910 ha         1 72H       0.117000
     23 HAO         -6.6190    -2.2680    -0.6860 ha         1 72H       0.118000
     24 HAN         -7.5590    -0.0680     0.0140 ha         1 72H       0.118000
     25 HAM         -6.0350     1.8050     0.6070 ha         1 72H       0.133000
     26 HAH         -1.4710     2.4060     0.8010 h4         1 72H       0.022100
     27 HAD          0.4220     2.2530    -0.5050 ha         1 72H       0.122000
     28 HAC          2.8720     2.0360    -0.5650 ha         1 72H       0.138500
     29 HAA          2.5290    -2.1270     0.5960 ha         1 72H       0.138500
     30 HAF          0.0800    -1.9000     0.6740 ha         1 72H       0.122000
     31 HAV          5.8140     0.8740     1.2810 hn         1 72H       0.474000
     32 HAT          5.6890    -0.6460     1.7030 hn         1 72H       0.474000
@<TRIPOS>BOND
     1     1     2 ar  
     2     1    10 ar  
     3     1    21 1   
     4     2     3 ar  
     5     2     7 ar  
     6     3     4 ar  
     7     3    22 1   
     8     4     5 ar  
     9     4    23 1   
    10     5     6 ar  
    11     5    24 1   
    12     6     7 ar  
    13     6    25 1   
    14     7     8 ar  
    15     8     9 ar  
    16     9    10 ar  
    17     9    26 1   
    18    10    11 1   
    19    11    12 ar  
    20    11    20 ar  
    21    12    13 ar  
    22    12    27 1   
    23    13    14 ar  
    24    13    28 1   
    25    14    15 1   
    26    14    19 ar  
    27    15    16 2   
    28    15    17 2   
    29    15    18 1   
    30    18    31 1   
    31    18    32 1   
    32    19    20 ar  
    33    19    29 1   
    34    20    30 1   
@<TRIPOS>SUBSTRUCTURE
     1 72H         1 TEMP              0 ****  ****    0 ROOT
