@<TRIPOS>MOLECULE
72K
   66    71     1     0     0
SMALL
No Charge or Current Charge


@<TRIPOS>ATOM
      1 C18          8.7690     1.5130     1.3640 ca         1 72K      -0.107000
      2 C20          9.1560     1.6200     0.0190 ca         1 72K      -0.101000
      3 C27          2.1410    -3.2360     1.3330 ca         1 72K      -0.078000
      4 C14          7.5500     0.9000     1.6950 ca         1 72K      -0.090000
      5 C28          3.3500    -2.5610     1.0500 ca         1 72K      -0.133000
      6 C3          -3.1880    -2.7660    -1.0220 ca         1 72K      -0.017000
      7 C16          8.3230     1.1150    -0.9950 ca         1 72K      -0.082000
      8 C24          0.9210    -2.7340     0.8420 ca         1 72K      -0.119000
      9 C2          -1.8400    -2.3850    -1.0810 ca         1 72K      -0.216000
     10 C13          5.4940    -0.2160     1.0080 ca         1 72K      -0.049000
     11 C6          -2.3350    -0.4210     0.2380 ca         1 72K      -0.222000
     12 C19          5.1390    -0.5700    -1.3530 ca         1 72K       0.366900
     13 C11          6.7160     0.3960     0.6780 ca         1 72K      -0.084000
     14 C23          2.1240    -0.8910    -0.1900 ca         1 72K      -0.214900
     15 C21          3.3740    -1.3740     0.2710 cp         1 72K       0.034000
     16 C17          4.6680    -0.7050    -0.0270 cp         1 72K      -0.094000
     17 C4          -4.1370    -1.9730    -0.3300 ca         1 72K      -0.271600
     18 C12          7.0960     0.4980    -0.6850 ca         1 72K       0.267000
     19 C22          0.9620    -1.5580     0.0810 ca         1 72K      -0.020200
     20 C1          -1.4030    -1.2120    -0.4480 ca         1 72K       0.111800
     21 C5          -3.6880    -0.7850     0.2930 ca         1 72K       0.424000
     22 C25          1.6980     0.2840    -0.9370 cc         1 72K       0.371900
     23 C30         -4.9390     1.8680    -0.6600 c6         1 72K      -0.092900
     24 C34         -5.6950     2.0770     1.7650 c6         1 72K      -0.092900
     25 C31         -5.0870     3.4010    -0.8380 c6         1 72K      -0.090900
     26 C33         -5.8410     3.6110     1.5880 c6         1 72K      -0.090900
     27 C29         -4.6170     1.5000     0.8130 c6         1 72K       0.240500
     28 C32         -6.1610     3.9800     0.1170 c6         1 72K       0.168300
     29 C36          2.5780     1.4060    -1.4100 c3         1 72K      -0.106400
     30 N15          6.3150     0.0170    -1.6800 nb         1 72K      -0.661000
     31 N26          0.3720     0.3200    -1.1310 nd         1 72K      -0.515100
     32 N10         -0.0590    -0.8360    -0.4980 na         1 72K       0.163800
     33 N9          -5.9620    -3.4800    -0.9830 nt         1 72K      -0.598000
     34 N7          -4.5730     0.0420     0.9740 nu         1 72K      -0.969200
     35 O37         -6.4360    -1.8330     0.3980 o          1 72K      -0.647100
     36 O35         -6.2230     5.4000    -0.0300 oh         1 72K      -0.657000
     37 H1           9.4140     1.9030     2.1490 ha         1 72K       0.116000
     38 H2          10.1010     2.0940    -0.2400 ha         1 72K       0.117000
     39 H3           2.1520    -4.1460     1.9300 ha         1 72K       0.116000
     40 H4           7.2550     0.8200     2.7390 ha         1 72K       0.116000
     41 H5           4.2840    -2.9680     1.4300 ha         1 72K       0.119000
     42 H6          -3.4750    -3.6900    -1.5190 ha         1 72K       0.107000
     43 H7           8.6290     1.2010    -2.0340 ha         1 72K       0.132000
     44 H8          -0.0180    -3.2400     1.0540 ha         1 72K       0.129000
     45 H9          -1.1280    -3.0070    -1.6190 ha         1 72K       0.127000
     46 H10          5.1800    -0.3080     2.0450 ha         1 72K       0.123000
     47 H11         -1.9950     0.4810     0.7350 ha         1 72K       0.142000
     48 H12          4.5460    -0.9500    -2.1850 h4         1 72K       0.026100
     49 H13         -5.8660     1.3700    -0.9770 hc         1 72K       0.053450
     50 H14         -4.1440     1.5000    -1.3230 hc         1 72K       0.053450
     51 H15         -5.4320     1.8510     2.8070 hc         1 72K       0.053450
     52 H16         -6.6640     1.5940     1.5740 hc         1 72K       0.053450
     53 H17         -4.1190     3.8880    -0.6500 hc         1 72K       0.052950
     54 H18         -5.3530     3.6280    -1.8800 hc         1 72K       0.052950
     55 H19         -6.6360     3.9830     2.2500 hc         1 72K       0.052950
     56 H20         -4.9130     4.1070     1.9040 hc         1 72K       0.052950
     57 H21         -3.6490     1.9480     1.0850 h1         1 72K       0.055700
     58 H22         -7.1330     3.5380    -0.1490 h1         1 72K       0.027700
     59 H23          3.0980     1.1290    -2.3340 hc         1 72K       0.054700
     60 H24          1.9890     2.3070    -1.6170 hc         1 72K       0.054700
     61 H25          3.3240     1.6670    -0.6520 hc         1 72K       0.054700
     62 H26         -5.2930    -3.9730    -1.5520 hn         1 72K       0.313500
     63 H27         -6.9250    -3.7780    -0.9470 hn         1 72K       0.313500
     64 H28         -5.4920    -0.4150     1.0340 hn         1 72K       0.530000
     65 H29         -6.9710     5.7080     0.5290 ho         1 72K       0.442000
     66 C8          -5.5870    -2.4000    -0.2700 c          1 72K       0.634700
@<TRIPOS>BOND
     1     1     2 ar  
     2     1     4 ar  
     3     1    37 1   
     4     2     7 ar  
     5     2    38 1   
     6     3     5 ar  
     7     3     8 ar  
     8     3    39 1   
     9     4    13 ar  
    10     4    40 1   
    11     5    15 ar  
    12     5    41 1   
    13     6     9 ar  
    14     6    17 ar  
    15     6    42 1   
    16     7    18 ar  
    17     7    43 1   
    18     8    19 ar  
    19     8    44 1   
    20     9    20 ar  
    21     9    45 1   
    22    10    13 ar  
    23    10    16 ar  
    24    10    46 1   
    25    11    20 ar  
    26    11    21 ar  
    27    11    47 1   
    28    12    16 ar  
    29    12    30 ar  
    30    12    48 1   
    31    13    18 ar  
    32    14    15 ar  
    33    14    19 ar  
    34    14    22 1   
    35    15    16 1   
    36    17    21 ar  
    37    17    66 1   
    38    18    30 ar  
    39    19    32 1   
    40    20    32 1   
    41    21    34 1   
    42    22    29 1   
    43    22    31 2   
    44    23    25 1   
    45    23    27 1   
    46    23    49 1   
    47    23    50 1   
    48    24    26 1   
    49    24    27 1   
    50    24    51 1   
    51    24    52 1   
    52    25    28 1   
    53    25    53 1   
    54    25    54 1   
    55    26    28 1   
    56    26    55 1   
    57    26    56 1   
    58    27    34 1   
    59    27    57 1   
    60    28    36 1   
    61    28    58 1   
    62    29    59 1   
    63    29    60 1   
    64    29    61 1   
    65    31    32 1   
    66    33    62 1   
    67    33    63 1   
    68    33    66 1   
    69    34    64 1   
    70    35    66 2   
    71    36    65 1   
@<TRIPOS>SUBSTRUCTURE
     1 72K         1 TEMP              0 ****  ****    0 ROOT
