@<TRIPOS>MOLECULE
72K
   66    71     1     0     0
SMALL
abcg2


@<TRIPOS>ATOM
      1 C18          8.5320     1.7320     1.0570 ca         1 72K      -0.107000
      2 C20          8.6880     2.0370    -0.3110 ca         1 72K      -0.101000
      3 C27          2.3050    -3.4500     1.2250 ca         1 72K      -0.078000
      4 C14          7.4560     1.0020     1.4840 ca         1 72K      -0.090000
      5 C28          3.4140    -2.6370     0.9390 ca         1 72K      -0.133000
      6 C3          -3.2710    -3.2060    -0.4240 ca         1 72K      -0.017000
      7 C16          7.7680     1.6090    -1.2310 ca         1 72K      -0.082000
      8 C24          1.0240    -3.0810     0.8840 ca         1 72K      -0.119000
      9 C2          -1.9310    -2.8780    -0.4040 ca         1 72K      -0.216000
     10 C13          5.3590    -0.2020     0.9390 ca         1 72K      -0.049000
     11 C6          -2.5580    -0.6020     0.1070 ca         1 72K      -0.222000
     12 C19          4.7190    -0.2420    -1.3570 ca         1 72K       0.366900
     13 C11          6.4910     0.5480     0.5570 ca         1 72K      -0.084000
     14 C23          1.9630    -0.9960    -0.0040 ca         1 72K      -0.214900
     15 C21          3.2690    -1.4110     0.3190 cp         1 72K       0.034000
     16 C17          4.4540    -0.5980    -0.0090 cp         1 72K      -0.094000
     17 C4          -4.2860    -2.2750    -0.2100 ca         1 72K      -0.271600
     18 C12          6.6480     0.8550    -0.8170 ca         1 72K       0.267000
     19 C22          0.8700    -1.8420     0.2520 ca         1 72K      -0.020200
     20 C1          -1.5870    -1.5530    -0.1400 ca         1 72K       0.111800
     21 C5          -3.9260    -0.9280     0.0850 ca         1 72K       0.424000
     22 C25          1.3780     0.2030    -0.5250 cc         1 72K       0.371900
     23 C30         -4.2150     2.1560    -0.7470 c6         1 72K      -0.092900
     24 C34         -5.8480     2.0690     1.1450 c6         1 72K      -0.092900
     25 C31         -3.9810     3.6390    -0.4840 c6         1 72K      -0.090900
     26 C33         -5.6290     3.5570     1.3950 c6         1 72K      -0.090900
     27 C29         -4.6040     1.4240     0.5410 c6         1 72K       0.240500
     28 C32         -5.2220     4.2810     0.1150 c6         1 72K       0.168300
     29 C36          2.0300     1.4750    -0.9390 c3         1 72K      -0.106400
     30 N15          5.7550     0.4430    -1.7500 nb         1 72K      -0.661000
     31 N26          0.0820     0.0730    -0.5910 nd         1 72K      -0.515100
     32 N10         -0.2410    -1.1550    -0.1460 na         1 72K       0.163800
     33 N9          -5.9840    -3.8040    -0.9800 nt         1 72K      -0.598000
     34 N7          -4.8590     0.0170     0.3330 nu         1 72K      -0.969200
     35 O37         -6.6070    -2.0560     0.2770 o          1 72K      -0.647100
     36 O35         -4.9500     5.6490     0.3400 oh         1 72K      -0.657000
     37 H1           9.2700     2.0790     1.7690 ha         1 72K       0.116000
     38 H2           9.5460     2.6120    -0.6340 ha         1 72K       0.117000
     39 H3           2.4670    -4.3990     1.7210 ha         1 72K       0.116000
     40 H4           7.3320     0.7650     2.5340 ha         1 72K       0.116000
     41 H5           4.4050    -2.9910     1.1920 ha         1 72K       0.119000
     42 H6          -3.5240    -4.2400    -0.6160 ha         1 72K       0.107000
     43 H7           7.8800     1.8370    -2.2830 ha         1 72K       0.132000
     44 H8           0.1860    -3.7210     1.1190 ha         1 72K       0.129000
     45 H9          -1.1860    -3.6270    -0.6280 ha         1 72K       0.127000
     46 H10          5.2090    -0.4470     1.9840 ha         1 72K       0.123000
     47 H11         -2.2440     0.4060     0.3320 ha         1 72K       0.142000
     48 H12          4.0300    -0.5680    -2.1310 h4         1 72K       0.026100
     49 H13         -5.0190     2.0250    -1.4790 hc         1 72K       0.053450
     50 H14         -3.3190     1.7140    -1.1900 hc         1 72K       0.053450
     51 H15         -6.1130     1.5650     2.0780 hc         1 72K       0.053450
     52 H16         -6.6900     1.9320     0.4570 hc         1 72K       0.053450
     53 H17         -3.1410     3.7620     0.2100 hc         1 72K       0.052950
     54 H18         -3.7060     4.1450    -1.4120 hc         1 72K       0.052950
     55 H19         -6.5430     3.9990     1.8010 hc         1 72K       0.052950
     56 H20         -4.8460     3.6950     2.1480 hc         1 72K       0.052950
     57 H21         -3.7880     1.5460     1.2670 h1         1 72K       0.055700
     58 H22         -6.0430     4.1670    -0.6120 h1         1 72K       0.027700
     59 H23          2.5600     1.3680    -1.8870 hc         1 72K       0.054700
     60 H24          1.2820     2.2560    -1.0620 hc         1 72K       0.054700
     61 H25          2.7560     1.8090    -0.1990 hc         1 72K       0.054700
     62 H26         -5.3210    -4.2370    -1.5980 hn         1 72K       0.313500
     63 H27         -6.9410    -4.1060    -1.0610 hn         1 72K       0.313500
     64 H28         -5.8110    -0.3120     0.3930 hn         1 72K       0.530000
     65 H29         -5.7450     6.0590     0.6920 ho         1 72K       0.442000
     66 C8          -5.7100    -2.6900    -0.2810 c          1 72K       0.634700
@<TRIPOS>BOND
     1     1     2 ar  
     2     1     4 ar  
     3     1    37 1   
     4     2     7 ar  
     5     2    38 1   
     6     3     5 ar  
     7     3     8 ar  
     8     3    39 1   
     9     4    13 ar  
    10     4    40 1   
    11     5    15 ar  
    12     5    41 1   
    13     6     9 ar  
    14     6    17 ar  
    15     6    42 1   
    16     7    18 ar  
    17     7    43 1   
    18     8    19 ar  
    19     8    44 1   
    20     9    20 ar  
    21     9    45 1   
    22    10    13 ar  
    23    10    16 ar  
    24    10    46 1   
    25    11    20 ar  
    26    11    21 ar  
    27    11    47 1   
    28    12    16 ar  
    29    12    30 ar  
    30    12    48 1   
    31    13    18 ar  
    32    14    15 ar  
    33    14    19 ar  
    34    14    22 1   
    35    15    16 1   
    36    17    21 ar  
    37    17    66 1   
    38    18    30 ar  
    39    19    32 1   
    40    20    32 1   
    41    21    34 1   
    42    22    29 1   
    43    22    31 2   
    44    23    25 1   
    45    23    27 1   
    46    23    49 1   
    47    23    50 1   
    48    24    26 1   
    49    24    27 1   
    50    24    51 1   
    51    24    52 1   
    52    25    28 1   
    53    25    53 1   
    54    25    54 1   
    55    26    28 1   
    56    26    55 1   
    57    26    56 1   
    58    27    34 1   
    59    27    57 1   
    60    28    36 1   
    61    28    58 1   
    62    29    59 1   
    63    29    60 1   
    64    29    61 1   
    65    31    32 1   
    66    33    62 1   
    67    33    63 1   
    68    33    66 1   
    69    34    64 1   
    70    35    66 2   
    71    36    65 1   
@<TRIPOS>SUBSTRUCTURE
     1 72K         1 TEMP              0 ****  ****    0 ROOT
