@<TRIPOS>MOLECULE
72L
   50    54     1     0     0
SMALL
abcg2


@<TRIPOS>ATOM
      1 C5           0.7070     5.0530     0.4530 cc         1 72L       0.443700
      2 C6          -2.4370    -0.4340    -0.2000 ca         1 72L       0.382000
      3 C11         -3.4130     0.5570    -0.0490 ca         1 72L      -0.186500
      4 C7          -2.8440    -1.7800    -0.2520 ca         1 72L      -0.186500
      5 C8          -4.1710    -2.1250    -0.1510 ca         1 72L       0.025500
      6 C9          -5.1310    -1.1270     0.0010 ca         1 72L      -0.323500
      7 C10         -4.7490     0.2040     0.0470 ca         1 72L       0.025500
      8 N1           0.9700     0.7340    -0.3720 nb         1 72L      -0.243000
      9 N2          -0.9360     2.1030     0.0190 nb         1 72L      -0.173000
     10 N3          -0.4380     4.4160     0.4070 nd         1 72L      -0.645700
     11 CB           1.8180     1.7470    -0.2870 cp         1 72L       0.256500
     12 C2          -0.3440     0.9480    -0.2130 ca         1 72L       0.378900
     13 C           -0.0980     3.1290     0.1280 ca         1 72L       0.271000
     14 CA           1.2920     3.0060    -0.0110 ca         1 72L      -0.231200
     15 N            1.7750     4.2690     0.2110 na         1 72L      -0.288600
     16 N5          -1.0850    -0.2030    -0.3160 nu         1 72L      -0.927900
     17 S1          -6.8260    -1.5740     0.1290 sy         1 72L       1.133600
     18 OH          -7.0930    -2.7470    -0.6920 o          1 72L      -0.549500
     19 N6          -6.9020    -2.1050     1.6960 n8         1 72L      -0.998100
     20 O2          -7.6280    -0.3790    -0.1010 o          1 72L      -0.549500
     21 CG           3.2510     1.4620    -0.4740 cp         1 72L      -0.161500
     22 CD1          4.1150     2.4130    -1.0120 ca         1 72L      -0.098000
     23 CE1          5.4580     2.1110    -1.1770 ca         1 72L      -0.116000
     24 C15          5.9470     0.8670    -0.8100 ca         1 72L      -0.082000
     25 CE2          5.0950    -0.1030    -0.2790 cp         1 72L      -0.033000
     26 CD2          3.7480     0.2100    -0.1200 ca         1 72L      -0.053000
     27 C18          5.6050    -1.4360     0.1010 cp         1 72L      -0.043000
     28 C19          4.8410    -2.5820    -0.1310 ca         1 72L      -0.097000
     29 C20          5.3180    -3.8360     0.2200 ca         1 72L      -0.110500
     30 C21          6.5690    -3.9680     0.8090 ca         1 72L      -0.102000
     31 C22          7.3370    -2.8350     1.0470 ca         1 72L      -0.110500
     32 C23          6.8600    -1.5810     0.6950 ca         1 72L      -0.097000
     33 H1           0.8230     6.1050     0.6630 h5         1 72L       0.069800
     34 H3          -3.1370     1.5970    -0.0080 ha         1 72L       0.138500
     35 H4          -2.1030    -2.5600    -0.3700 ha         1 72L       0.138500
     36 H5          -4.4520    -3.1690    -0.1910 ha         1 72L       0.136000
     37 H6          -5.4870     0.9880     0.1560 ha         1 72L       0.136000
     38 H8           2.7360     4.5700     0.2520 hn         1 72L       0.368000
     39 H9          -0.5150    -1.0220    -0.4670 hn         1 72L       0.513000
     40 H10         -7.7660    -2.6110     1.8710 hn         1 72L       0.468000
     41 H11         -6.8060    -1.3480     2.3660 hn         1 72L       0.468000
     42 H12          3.7490     3.3740    -1.3490 ha         1 72L       0.108000
     43 H13          6.1240     2.8450    -1.6110 ha         1 72L       0.118000
     44 H14          6.9950     0.6420    -0.9630 ha         1 72L       0.120000
     45 H15          3.0730    -0.5200     0.3080 ha         1 72L       0.136000
     46 H16          3.8720    -2.4970    -0.6080 ha         1 72L       0.115000
     47 H17          4.7150    -4.7130     0.0240 ha         1 72L       0.114500
     48 H18          6.9420    -4.9460     1.0810 ha         1 72L       0.115000
     49 H19          8.3090    -2.9270     1.5140 ha         1 72L       0.114500
     50 H20          7.4630    -0.7060     0.9040 ha         1 72L       0.115000
@<TRIPOS>BOND
     1     1    10 2   
     2     1    15 1   
     3     1    33 1   
     4     2     3 ar  
     5     2     4 ar  
     6     2    16 1   
     7     3     7 ar  
     8     3    34 1   
     9     4     5 ar  
    10     4    35 1   
    11     5     6 ar  
    12     5    36 1   
    13     6     7 ar  
    14     6    17 1   
    15     7    37 1   
    16     8    11 ar  
    17     8    12 ar  
    18     9    12 ar  
    19     9    13 ar  
    20    10    13 1   
    21    11    14 ar  
    22    11    21 1   
    23    12    16 1   
    24    13    14 ar  
    25    14    15 1   
    26    15    38 1   
    27    16    39 1   
    28    17    18 2   
    29    17    19 1   
    30    17    20 2   
    31    19    40 1   
    32    19    41 1   
    33    21    22 ar  
    34    21    26 ar  
    35    22    23 ar  
    36    22    42 1   
    37    23    24 ar  
    38    23    43 1   
    39    24    25 ar  
    40    24    44 1   
    41    25    26 ar  
    42    25    27 1   
    43    26    45 1   
    44    27    28 ar  
    45    27    32 ar  
    46    28    29 ar  
    47    28    46 1   
    48    29    30 ar  
    49    29    47 1   
    50    30    31 ar  
    51    30    48 1   
    52    31    32 ar  
    53    31    49 1   
    54    32    50 1   
@<TRIPOS>SUBSTRUCTURE
     1 72L         1 TEMP              0 ****  ****    0 ROOT
