@<TRIPOS>MOLECULE
72L
   50    54     1     0     0
SMALL
No Charge or Current Charge


@<TRIPOS>ATOM
      1 C5           0.8160     4.8260     1.0570 cc         1 72L       0.443700
      2 C6          -2.6020    -0.6200    -0.1780 ca         1 72L       0.382000
      3 C11         -3.5480     0.3690    -0.4980 ca         1 72L      -0.186500
      4 C7          -3.0430    -1.9100     0.1490 ca         1 72L      -0.186500
      5 C8          -4.4140    -2.2120     0.1860 ca         1 72L       0.025500
      6 C9          -5.3590    -1.2130    -0.1190 ca         1 72L      -0.323500
      7 C10         -4.9220     0.0800    -0.4670 ca         1 72L       0.025500
      8 N1           0.8840     0.5500    -0.3040 nb         1 72L      -0.243000
      9 N2          -1.0070     1.8980     0.4030 nb         1 72L      -0.173000
     10 N3          -0.4030     4.2300     1.0500 nd         1 72L      -0.645700
     11 CB           1.7280     1.5950    -0.1500 cp         1 72L       0.256500
     12 C2          -0.4310     0.7530    -0.0440 ca         1 72L       0.378900
     13 C           -0.1710     2.9350     0.5800 ca         1 72L       0.271000
     14 CA           1.1480     2.7960     0.3070 ca         1 72L      -0.231200
     15 N            1.8030     3.9510     0.6100 na         1 72L      -0.288600
     16 N5          -1.2270    -0.3760    -0.2130 nu         1 72L      -0.927900
     17 S1          -7.1080    -1.5970    -0.0780 sy         1 72L       1.133600
     18 OH          -7.3250    -3.0280    -0.2880 o          1 72L      -0.549500
     19 N6          -7.4580    -1.3370     1.4970 n8         1 72L      -0.998100
     20 O2          -7.8640    -0.5630    -0.7800 o          1 72L      -0.549500
     21 CG           3.1820     1.3890    -0.4500 cp         1 72L      -0.161500
     22 CD1          3.9530     2.3830    -1.1010 ca         1 72L      -0.098000
     23 CE1          5.3130     2.1740    -1.3780 ca         1 72L      -0.116000
     24 C15          5.9300     0.9650    -1.0180 ca         1 72L      -0.082000
     25 CE2          5.1980    -0.0650    -0.3790 cp         1 72L      -0.033000
     26 CD2          3.8260     0.1720    -0.1100 ca         1 72L      -0.053000
     27 C18          5.8510    -1.3590    -0.0000 cp         1 72L      -0.043000
     28 C19          5.1430    -2.5870    -0.0730 ca         1 72L      -0.097000
     29 C20          5.7560    -3.8010     0.2820 ca         1 72L      -0.110500
     30 C21          7.0910    -3.8140     0.7180 ca         1 72L      -0.102000
     31 C22          7.8110    -2.6120     0.7980 ca         1 72L      -0.110500
     32 C23          7.1980    -1.3980     0.4420 ca         1 72L      -0.097000
     33 H1           1.0370     5.8400     1.3710 h5         1 72L       0.069800
     34 H3          -3.2280     1.3620    -0.7930 ha         1 72L       0.138500
     35 H4          -2.3220    -2.6860     0.3880 ha         1 72L       0.138500
     36 H5          -4.7350    -3.2180     0.4520 ha         1 72L       0.136000
     37 H6          -5.6380     0.8620    -0.7200 ha         1 72L       0.136000
     38 H8           2.7960     4.1450     0.5600 hn         1 72L       0.368000
     39 H9          -0.6720    -1.2240    -0.3170 hn         1 72L       0.513000
     40 H10         -8.2520    -0.7060     1.4160 hn         1 72L       0.468000
     41 H11         -6.6950    -0.7330     1.7900 hn         1 72L       0.468000
     42 H12          3.4910     3.3160    -1.4160 ha         1 72L       0.108000
     43 H13          5.8890     2.9470    -1.8830 ha         1 72L       0.118000
     44 H14          6.9810     0.8200    -1.2560 ha         1 72L       0.120000
     45 H15          3.2520    -0.6000     0.3970 ha         1 72L       0.136000
     46 H16          4.1140    -2.6010    -0.4220 ha         1 72L       0.115000
     47 H17          5.1970    -4.7320     0.2160 ha         1 72L       0.114500
     48 H18          7.5650    -4.7540     0.9930 ha         1 72L       0.115000
     49 H19          8.8450    -2.6190     1.1390 ha         1 72L       0.114500
     50 H20          7.7700    -0.4770     0.5240 ha         1 72L       0.115000
@<TRIPOS>BOND
     1     1    10 2   
     2     1    15 1   
     3     1    33 1   
     4     2     3 ar  
     5     2     4 ar  
     6     2    16 1   
     7     3     7 ar  
     8     3    34 1   
     9     4     5 ar  
    10     4    35 1   
    11     5     6 ar  
    12     5    36 1   
    13     6     7 ar  
    14     6    17 1   
    15     7    37 1   
    16     8    11 ar  
    17     8    12 ar  
    18     9    12 ar  
    19     9    13 ar  
    20    10    13 1   
    21    11    14 ar  
    22    11    21 1   
    23    12    16 1   
    24    13    14 ar  
    25    14    15 1   
    26    15    38 1   
    27    16    39 1   
    28    17    18 2   
    29    17    19 1   
    30    17    20 2   
    31    19    40 1   
    32    19    41 1   
    33    21    22 ar  
    34    21    26 ar  
    35    22    23 ar  
    36    22    42 1   
    37    23    24 ar  
    38    23    43 1   
    39    24    25 ar  
    40    24    44 1   
    41    25    26 ar  
    42    25    27 1   
    43    26    45 1   
    44    27    28 ar  
    45    27    32 ar  
    46    28    29 ar  
    47    28    46 1   
    48    29    30 ar  
    49    29    47 1   
    50    30    31 ar  
    51    30    48 1   
    52    31    32 ar  
    53    31    49 1   
    54    32    50 1   
@<TRIPOS>SUBSTRUCTURE
     1 72L         1 TEMP              0 ****  ****    0 ROOT
