@<TRIPOS>MOLECULE
72M
   67    71     1     0     0
SMALL
abcg2


@<TRIPOS>ATOM
      1 N3           5.1290     1.2810    -0.1810 nb         1 72M      -0.221000
      2 C4           3.1060     3.1930    -0.5680 ca         1 72M       0.452900
      3 C5           3.8370     0.9620    -0.2270 ca         1 72M       0.125500
      4 C6           2.7770     1.8340    -0.4150 ca         1 72M      -0.102600
      5 C8           1.9180    -0.0820    -0.2000 cc         1 72M       0.406700
      6 C10          3.9960    -1.5100     0.1610 c5         1 72M       0.322300
      7 C21         -5.2360    -1.6480    -0.9150 ca         1 72M       0.193100
      8 C22         -5.3400     0.7130    -1.4040 ca         1 72M      -0.146000
      9 C24         -5.9840    -0.4740    -1.1170 ca         1 72M       0.087100
     10 C1           5.3130     2.5800    -0.3400 ca         1 72M       0.185900
     11 N2           4.3990     3.5300    -0.5240 nb         1 72M      -0.301000
     12 N7           1.5860     1.1590    -0.3970 nd         1 72M      -0.565100
     13 N9           3.2680    -0.2720    -0.0920 na         1 72M      -0.311300
     14 C11          3.0890    -2.3340     2.1720 c5         1 72M       0.093300
     15 C12          4.3510    -1.6490     1.6390 c5         1 72M       0.100300
     16 O13          3.1850    -2.6000    -0.1610 os         1 72M      -0.438000
     17 C14          2.7400    -3.2740     1.0090 c5         1 72M       0.194500
     18 C16         -0.9540    -3.8670    -0.0810 c3         1 72M       0.131200
     19 N17         -1.7800    -2.7120    -0.3940 ns         1 72M      -0.481900
     20 C18         -3.0760    -2.8220    -0.7000 c          1 72M       0.624700
     21 C19         -3.8390    -1.5770    -0.9630 ca         1 72M      -0.242600
     22 O20         -3.6300    -3.9290    -0.7520 o          1 72M      -0.647100
     23 C23         -3.9480     0.7840    -1.5020 ca         1 72M      -0.087300
     24 C25         -3.2140    -0.3630    -1.2760 ca         1 72M      -0.071000
     25 O28         -7.3230    -0.5980    -1.0320 oh         1 72M      -0.509100
     26 O29          3.2870    -3.0740     3.3400 oh         1 72M      -0.705000
     27 O30          5.4620    -2.4950     1.7290 oh         1 72M      -0.700000
     28 N31          2.1850     4.1400    -0.7530 nv         1 72M      -1.063900
     29 C32          1.2910    -3.6170     0.9460 c2         1 72M      -0.220200
     30 C33         -2.7580     2.8020    -0.6100 ca         1 72M      -0.084300
     31 C34         -1.4730     2.5540    -0.1350 ca         1 72M      -0.104000
     32 C35         -1.7990     4.0720     1.7230 ca         1 72M      -0.078300
     33 C36         -3.0830     4.3190     1.2450 ca         1 72M      -0.114500
     34 C37         -1.0040     3.1740     1.0130 ca         1 72M      -0.114500
     35 C38         -3.5550     3.6940     0.0970 ca         1 72M      -0.104000
     36 C39         -1.2740     4.7650     2.9470 c3         1 72M      -0.046800
     37 H1           1.2190    -0.8990    -0.1300 h5         1 72M       0.068800
     38 H2           4.8850    -1.4970    -0.4740 h2         1 72M       0.131700
     39 H3           0.8680    -3.0980    -1.0480 ha         1 72M       0.195000
     40 H4          -5.9330     1.6060    -1.5770 ha         1 72M       0.114000
     41 H5          -2.4460     1.9070    -2.5250 hc         1 72M       0.054200
     42 H6          -3.9770     2.7370    -2.3670 hc         1 72M       0.054200
     43 H7           6.3420     2.9230    -0.3170 h5         1 72M       0.049100
     44 H8           2.2950    -1.5870     2.3000 h1         1 72M       0.058700
     45 H9           4.5370    -0.6740     2.1070 h1         1 72M       0.078700
     46 H10          3.3140    -4.2030     1.1320 h1         1 72M       0.093700
     47 H11         -1.1440    -4.6380    -0.8290 h1         1 72M       0.064200
     48 H12         -1.2260    -4.2840     0.8920 h1         1 72M       0.064200
     49 H13         -1.4110    -1.8060    -0.1580 hn         1 72M       0.320500
     50 H14         -2.1370    -0.3180    -1.3840 ha         1 72M       0.113000
     51 H15         -5.2560    -3.5050    -0.6880 ho         1 72M       0.514000
     52 H16         -7.7450     0.2470    -1.2200 ho         1 72M       0.458000
     53 H17          3.2000    -2.4870     4.0980 ho         1 72M       0.519000
     54 H18          5.4320    -2.9380     2.5860 ho         1 72M       0.526000
     55 H19          2.4550     5.1070    -0.8170 hn         1 72M       0.509500
     56 H20          1.2050     3.9180    -0.7650 hn         1 72M       0.509500
     57 H21          0.8960    -4.0290     1.8710 ha         1 72M       0.188000
     58 H22         -0.8140     1.8720    -0.6590 ha         1 72M       0.119000
     59 H23         -3.7260     5.0130     1.7740 ha         1 72M       0.112500
     60 H24         -0.0020     2.9460     1.3620 ha         1 72M       0.112500
     61 H25         -4.5600     3.9090    -0.2480 ha         1 72M       0.119000
     62 H26         -0.5880     5.5720     2.6800 hc         1 72M       0.041367
     63 H27         -2.0790     5.2050     3.5350 hc         1 72M       0.041367
     64 H28         -0.7230     4.0780     3.5900 hc         1 72M       0.041367
     65 C15          0.4910    -3.4830    -0.1060 c2         1 72M      -0.227200
     66 O27         -5.9170    -2.7740    -0.6830 oh         1 72M      -0.527100
     67 C26         -3.2740     2.0920    -1.8370 c3         1 72M       0.021200
@<TRIPOS>BOND
     1     1     3 ar  
     2     1    10 ar  
     3     2     4 ar  
     4     2    11 ar  
     5     2    28 1   
     6     3     4 ar  
     7     3    13 1   
     8     4    12 1   
     9     5    12 2   
    10     5    13 1   
    11     5    37 1   
    12     6    13 1   
    13     6    15 1   
    14     6    16 1   
    15     6    38 1   
    16     7     9 ar  
    17     7    21 ar  
    18     7    66 1   
    19     8     9 ar  
    20     8    23 ar  
    21     8    40 1   
    22     9    25 1   
    23    10    11 ar  
    24    10    43 1   
    25    14    15 1   
    26    14    17 1   
    27    14    26 1   
    28    14    44 1   
    29    15    27 1   
    30    15    45 1   
    31    16    17 1   
    32    17    29 1   
    33    17    46 1   
    34    18    19 1   
    35    18    47 1   
    36    18    48 1   
    37    18    65 1   
    38    19    20 1   
    39    19    49 1   
    40    20    21 1   
    41    20    22 2   
    42    21    24 ar  
    43    23    24 ar  
    44    23    67 1   
    45    24    50 1   
    46    25    52 1   
    47    26    53 1   
    48    27    54 1   
    49    28    55 1   
    50    28    56 1   
    51    29    57 1   
    52    29    65 2   
    53    30    31 ar  
    54    30    35 ar  
    55    30    67 1   
    56    31    34 ar  
    57    31    58 1   
    58    32    33 ar  
    59    32    34 ar  
    60    32    36 1   
    61    33    35 ar  
    62    33    59 1   
    63    34    60 1   
    64    35    61 1   
    65    36    62 1   
    66    36    63 1   
    67    36    64 1   
    68    39    65 1   
    69    41    67 1   
    70    42    67 1   
    71    51    66 1   
@<TRIPOS>SUBSTRUCTURE
     1 72M         1 TEMP              0 ****  ****    0 ROOT
