@<TRIPOS>MOLECULE
72M
   67    71     1     0     0
SMALL
No Charge or Current Charge


@<TRIPOS>ATOM
      1 N3           3.6620     2.7670    -0.2100 nb         1 72M      -0.221000
      2 C4           3.5120     4.5470     1.8920 ca         1 72M       0.452900
      3 C5           3.4710     2.3170     1.0450 ca         1 72M       0.125500
      4 C6           3.3910     3.1610     2.1230 ca         1 72M      -0.102600
      5 C8           3.1600     1.1830     2.9380 cc         1 72M       0.406700
      6 C10          3.4440    -0.1990     0.8120 c5         1 72M       0.322300
      7 C21         -5.6800    -2.0950    -1.0610 ca         1 72M       0.193100
      8 C22         -5.5530    -0.0700    -2.4280 ca         1 72M      -0.146000
      9 C24         -6.3190    -1.0750    -1.8150 ca         1 72M       0.087100
     10 C1           3.7690     4.1120    -0.3400 ca         1 72M       0.185900
     11 N2           3.7060     5.0310     0.6550 nb         1 72M      -0.301000
     12 N7           3.1960     2.4720     3.3250 nd         1 72M      -0.565100
     13 N9           3.3320     1.0580     1.5550 na         1 72M      -0.311300
     14 C11          2.8840    -2.2630     1.9470 c5         1 72M       0.093300
     15 C12          4.1260    -1.4130     1.5560 c5         1 72M       0.100300
     16 O13          2.1070    -0.6300     0.4500 os         1 72M      -0.438000
     17 C14          2.0210    -2.0470     0.6690 c5         1 72M       0.194500
     18 C16         -1.3760    -4.0000     0.7610 c3         1 72M       0.131200
     19 N17         -2.2180    -3.0980    -0.0100 ns         1 72M      -0.481900
     20 C18         -3.5840    -3.1800    -0.1070 c          1 72M       0.624700
     21 C19         -4.2700    -2.1090    -0.9260 ca         1 72M      -0.242600
     22 O20         -4.2110    -4.0740     0.4490 o          1 72M      -0.647100
     23 C23         -4.1530    -0.0720    -2.3030 ca         1 72M      -0.087300
     24 C25         -3.5220    -1.0880    -1.5640 ca         1 72M      -0.071000
     25 O28         -7.6840    -1.0490    -1.9530 oh         1 72M      -0.509100
     26 O29          3.2460    -3.6360     2.1890 oh         1 72M      -0.705000
     27 O30          4.9710    -2.2050     0.7070 oh         1 72M      -0.700000
     28 N31          3.4510     5.4660     2.8930 nv         1 72M      -1.063900
     29 C32          0.5630    -2.3740     0.9510 c2         1 72M      -0.220200
     30 C33         -2.4400     1.7430    -1.9260 ca         1 72M      -0.084300
     31 C34         -1.0750     1.4220    -1.7860 ca         1 72M      -0.104000
     32 C35         -0.8570     3.0390     0.0270 ca         1 72M      -0.078300
     33 C36         -2.2190     3.3660    -0.1160 ca         1 72M      -0.114500
     34 C37         -0.2900     2.0640    -0.8130 ca         1 72M      -0.114500
     35 C38         -3.0060     2.7200    -1.0850 ca         1 72M      -0.104000
     36 C39         -0.0010     3.7240     1.0790 c3         1 72M      -0.046800
     37 H1           3.0270     0.3280     3.5910 h5         1 72M       0.068800
     38 H2           4.0200     0.0350    -0.0930 h2         1 72M       0.131700
     39 H3           0.6940    -4.3230     0.1070 ha         1 72M       0.195000
     40 H4          -6.0430     0.7150    -2.9990 ha         1 72M       0.114000
     41 H5          -2.6800     0.5800    -3.7360 hc         1 72M       0.054200
     42 H6          -3.9490     1.7490    -3.4670 hc         1 72M       0.054200
     43 H7           3.9250     4.4930    -1.3480 h5         1 72M       0.049100
     44 H8           2.3830    -1.8330     2.8260 h1         1 72M       0.058700
     45 H9           4.6820    -1.0840     2.4460 h1         1 72M       0.078700
     46 H10          2.4240    -2.5780    -0.2060 h1         1 72M       0.093700
     47 H11         -1.5190    -5.0280     0.3990 h1         1 72M       0.064200
     48 H12         -1.6670    -3.9560     1.8190 h1         1 72M       0.064200
     49 H13         -1.7680    -2.3350    -0.4950 hn         1 72M       0.320500
     50 H14         -2.4390    -1.0600    -1.4910 ha         1 72M       0.113000
     51 H15         -5.7730    -3.6540     0.0100 ho         1 72M       0.514000
     52 H16         -7.9320    -0.2750    -2.5020 ho         1 72M       0.458000
     53 H17          2.4310    -4.1000     2.4980 ho         1 72M       0.519000
     54 H18          4.7660    -3.1310     0.9970 ho         1 72M       0.526000
     55 H19          3.8430     6.3870     2.7170 hn         1 72M       0.509500
     56 H20          3.5240     5.1140     3.8440 hn         1 72M       0.509500
     57 H21         -0.0790    -1.6270     1.4230 ha         1 72M       0.188000
     58 H22         -0.6230     0.6650    -2.4240 ha         1 72M       0.119000
     59 H23         -2.6710     4.1170     0.5280 ha         1 72M       0.112500
     60 H24          0.7600     1.8000    -0.7090 ha         1 72M       0.112500
     61 H25         -4.0600     2.9730    -1.1770 ha         1 72M       0.119000
     62 H26          0.7550     4.3630     0.6100 hc         1 72M       0.041367
     63 H27         -0.6000     4.3540     1.7480 hc         1 72M       0.041367
     64 H28          0.5180     2.9860     1.7010 hc         1 72M       0.041367
     65 C15          0.0630    -3.5720     0.5900 c2         1 72M      -0.227200
     66 O27         -6.4270    -3.0690    -0.4570 oh         1 72M      -0.527100
     67 C26         -3.3080     1.0220    -2.9530 c3         1 72M       0.021200
@<TRIPOS>BOND
     1     1     3 ar  
     2     1    10 ar  
     3     2     4 ar  
     4     2    11 ar  
     5     2    28 1   
     6     3     4 ar  
     7     3    13 1   
     8     4    12 1   
     9     5    12 2   
    10     5    13 1   
    11     5    37 1   
    12     6    13 1   
    13     6    15 1   
    14     6    16 1   
    15     6    38 1   
    16     7     9 ar  
    17     7    21 ar  
    18     7    66 1   
    19     8     9 ar  
    20     8    23 ar  
    21     8    40 1   
    22     9    25 1   
    23    10    11 ar  
    24    10    43 1   
    25    14    15 1   
    26    14    17 1   
    27    14    26 1   
    28    14    44 1   
    29    15    27 1   
    30    15    45 1   
    31    16    17 1   
    32    17    29 1   
    33    17    46 1   
    34    18    19 1   
    35    18    47 1   
    36    18    48 1   
    37    18    65 1   
    38    19    20 1   
    39    19    49 1   
    40    20    21 1   
    41    20    22 2   
    42    21    24 ar  
    43    23    24 ar  
    44    23    67 1   
    45    24    50 1   
    46    25    52 1   
    47    26    53 1   
    48    27    54 1   
    49    28    55 1   
    50    28    56 1   
    51    29    57 1   
    52    29    65 2   
    53    30    31 ar  
    54    30    35 ar  
    55    30    67 1   
    56    31    34 ar  
    57    31    58 1   
    58    32    33 ar  
    59    32    34 ar  
    60    32    36 1   
    61    33    35 ar  
    62    33    59 1   
    63    34    60 1   
    64    35    61 1   
    65    36    62 1   
    66    36    63 1   
    67    36    64 1   
    68    39    65 1   
    69    41    67 1   
    70    42    67 1   
    71    51    66 1   
@<TRIPOS>SUBSTRUCTURE
     1 72M         1 TEMP              0 ****  ****    0 ROOT
