@<TRIPOS>MOLECULE
72N
   28    30     1     0     0
SMALL
abcg2


@<TRIPOS>ATOM
      1 N1           0.3270     0.6740    -0.0930 na         1 72N      -0.285800
      2 N3           2.4710     0.9710    -0.2750 nc         1 72N      -0.361000
      3 C5           0.6110     1.9950     0.0960 cd         1 72N       0.399800
      4 C6          -0.4040     3.0320     0.3940 c3         1 72N      -0.122400
      5 C7           1.6800    -1.3660    -0.5550 cx         1 72N      -0.179000
      6 C8          -0.9440     0.0490    -0.0300 ca         1 72N      -0.008200
      7 C10         -2.4600    -1.4490     1.0660 ca         1 72N      -0.103500
      8 C13         -1.8960     0.3240    -1.0010 ca         1 72N      -0.100000
      9 C15          2.1490    -2.2540     0.5710 cx         1 72N      -0.109900
     10 C11         -3.4220    -1.1740     0.1030 ca         1 72N      -0.101000
     11 C12         -3.1410    -0.2850    -0.9270 ca         1 72N      -0.103500
     12 C14          3.0520    -1.9640    -0.5810 cx         1 72N      -0.109900
     13 C2           1.5300     0.0740    -0.3200 cd         1 72N       0.431800
     14 C9          -1.2180    -0.8340     1.0060 ca         1 72N      -0.100000
     15 N4           1.8950     2.1730    -0.0070 nc         1 72N      -0.361000
     16 H1          -0.9580     2.7940     1.3020 hc         1 72N       0.059033
     17 H2           0.0920     3.9890     0.5360 hc         1 72N       0.059033
     18 H3          -1.1260     3.1390    -0.4150 hc         1 72N       0.059033
     19 H4           0.9440    -1.7970    -1.2240 hc         1 72N       0.092700
     20 H5          -2.6770    -2.1380     1.8710 ha         1 72N       0.121000
     21 H6          -1.6660     1.0040    -1.8120 ha         1 72N       0.129500
     22 H7           2.3690    -1.7840     1.5210 hc         1 72N       0.080450
     23 H8           1.6980    -3.2350     0.6460 hc         1 72N       0.080450
     24 H9          -4.3910    -1.6520     0.1540 ha         1 72N       0.119000
     25 H10         -3.8870    -0.0700    -1.6790 ha         1 72N       0.121000
     26 H11          3.2330    -2.7470    -1.3050 hc         1 72N       0.080450
     27 H12          3.8900    -1.2990    -0.4160 hc         1 72N       0.080450
     28 H13         -0.4680    -1.0310     1.7600 ha         1 72N       0.129500
@<TRIPOS>BOND
     1     1     3 1   
     2     1     6 1   
     3     1    13 1   
     4     2    13 2   
     5     2    15 1   
     6     3     4 1   
     7     3    15 2   
     8     4    16 1   
     9     4    17 1   
    10     4    18 1   
    11     5     9 1   
    12     5    12 1   
    13     5    13 1   
    14     5    19 1   
    15     6     8 ar  
    16     6    14 ar  
    17     7    10 ar  
    18     7    14 ar  
    19     7    20 1   
    20     8    11 ar  
    21     8    21 1   
    22     9    12 1   
    23     9    22 1   
    24     9    23 1   
    25    10    11 ar  
    26    10    24 1   
    27    11    25 1   
    28    12    26 1   
    29    12    27 1   
    30    14    28 1   
@<TRIPOS>SUBSTRUCTURE
     1 72N         1 TEMP              0 ****  ****    0 ROOT
