@<TRIPOS>MOLECULE
72N
   28    30     1     0     0
SMALL
No Charge or Current Charge


@<TRIPOS>ATOM
      1 N1           0.3630     0.8920    -0.5170 na         1 72N      -0.285800
      2 N3           2.4820     0.9840     0.0410 nc         1 72N      -0.361000
      3 C5           0.5790     2.0480     0.1870 cd         1 72N       0.399800
      4 C6          -0.4540     3.0770     0.5610 c3         1 72N      -0.122400
      5 C7           1.8450    -1.1790    -0.9690 cx         1 72N      -0.179000
      6 C8          -0.7870     0.1770    -0.1810 ca         1 72N      -0.008200
      7 C10         -2.1980    -0.9610     1.4560 ca         1 72N      -0.103500
      8 C13         -1.7120    -0.1470    -1.1910 ca         1 72N      -0.100000
      9 C15          1.3870    -2.4120    -0.2170 cx         1 72N      -0.109900
     10 C11         -3.1180    -1.2800     0.4430 ca         1 72N      -0.101000
     11 C12         -2.8750    -0.8730    -0.8800 ca         1 72N      -0.103500
     12 C14          2.8570    -2.0760    -0.2850 cx         1 72N      -0.109900
     13 C2           1.5410     0.1910    -0.4640 cd         1 72N       0.431800
     14 C9          -1.0350    -0.2340     1.1460 ca         1 72N      -0.100000
     15 N4           1.8710     2.1580     0.4630 nc         1 72N      -0.361000
     16 H1          -0.8850     2.8540     1.5430 hc         1 72N       0.059033
     17 H2          -0.0140     4.0800     0.6030 hc         1 72N       0.059033
     18 H3          -1.2690     3.0980    -0.1710 hc         1 72N       0.059033
     19 H4           1.8050    -1.2300    -2.0540 hc         1 72N       0.092700
     20 H5          -2.3850    -1.2770     2.4800 ha         1 72N       0.121000
     21 H6          -1.5280     0.1630    -2.2170 ha         1 72N       0.129500
     22 H7           0.8880    -2.2800     0.7400 hc         1 72N       0.080450
     23 H8           1.0300    -3.2570    -0.8010 hc         1 72N       0.080450
     24 H9          -4.0180    -1.8420     0.6830 ha         1 72N       0.119000
     25 H10         -3.5870    -1.1210    -1.6650 ha         1 72N       0.121000
     26 H11          3.4910    -2.6970    -0.9130 hc         1 72N       0.080450
     27 H12          3.3340    -1.7180     0.6250 hc         1 72N       0.080450
     28 H13         -0.3260     0.0020     1.9380 ha         1 72N       0.129500
@<TRIPOS>BOND
     1     1     3 1   
     2     1     6 1   
     3     1    13 1   
     4     2    13 2   
     5     2    15 1   
     6     3     4 1   
     7     3    15 2   
     8     4    16 1   
     9     4    17 1   
    10     4    18 1   
    11     5     9 1   
    12     5    12 1   
    13     5    13 1   
    14     5    19 1   
    15     6     8 ar  
    16     6    14 ar  
    17     7    10 ar  
    18     7    14 ar  
    19     7    20 1   
    20     8    11 ar  
    21     8    21 1   
    22     9    12 1   
    23     9    22 1   
    24     9    23 1   
    25    10    11 ar  
    26    10    24 1   
    27    11    25 1   
    28    12    26 1   
    29    12    27 1   
    30    14    28 1   
@<TRIPOS>SUBSTRUCTURE
     1 72N         1 TEMP              0 ****  ****    0 ROOT
