@<TRIPOS>MOLECULE
72O
   32    34     1     0     0
SMALL
No Charge or Current Charge


@<TRIPOS>ATOM
      1 C1           3.0390    -0.1980     0.2200 cc         1 72O      -0.196000
      2 N2           1.4780    -1.1730     1.6490 nd         1 72O      -0.642000
      3 C3           2.7660    -0.6810     1.4910 cd         1 72O       0.306300
      4 S4           1.6610    -0.3520    -0.8340 ss         1 72O       0.080600
      5 C5           4.2900     0.3680    -0.2230 cc         1 72O      -0.074000
      6 C6           0.8010    -1.0530     0.5100 cc         1 72O       0.405700
      7 N7           5.4670     0.5530     0.5000 na         1 72O       0.007800
      8 N8           6.4790     1.1320    -0.2560 nc         1 72O      -0.513800
      9 C9           4.5730     0.8450    -1.4670 cd         1 72O      -0.213000
     10 C10          5.9090     1.2970    -1.4390 cd         1 72O       0.238900
     11 C11         -3.5350     0.7060    -0.4550 ca         1 72O      -0.138000
     12 C12         -0.6300    -1.5010     0.3380 c3         1 72O       0.130300
     13 O13         -1.4610    -0.3560     0.0440 os         1 72O      -0.355100
     14 C14         -2.8190    -0.4670    -0.1720 ca         1 72O       0.152100
     15 C15         -4.9190     0.6520    -0.6830 ca         1 72O       0.154000
     16 C16          3.6860    -0.7290     2.6820 c3         1 72O      -0.128400
     17 Cl1         -5.8080     2.1270    -1.0370 cl         1 72O      -0.196000
     18 C18         -4.8860    -1.7570    -0.3470 ca         1 72O      -0.064000
     19 C19         -3.4990    -1.7040    -0.1170 ca         1 72O      -0.194000
     20 C20         -5.5950    -0.5770    -0.6300 ca         1 72O      -0.136000
     21 H1           5.6180     0.3080     1.4750 hn         1 72O       0.373000
     22 H2           3.9080     0.8770    -2.3230 ha         1 72O       0.149000
     23 H3           6.4780     1.7390    -2.2470 h4         1 72O       0.039100
     24 H5          -0.6720    -2.2320    -0.4790 h1         1 72O       0.066200
     25 H6          -0.9630    -1.9940     1.2600 h1         1 72O       0.066200
     26 H7           4.0120     0.2780     2.9680 hc         1 72O       0.053700
     27 H8           3.1870    -1.1680     3.5550 hc         1 72O       0.053700
     28 H9           4.5700    -1.3410     2.4720 hc         1 72O       0.053700
     29 H10         -5.4100    -2.7100    -0.3050 ha         1 72O       0.119000
     30 H11         -2.9730    -2.6300     0.1000 ha         1 72O       0.123000
     31 H12         -6.6670    -0.6150    -0.8070 ha         1 72O       0.134000
     32 H4          -3.0160     1.6590    -0.4970 ha         1 72O       0.144000
@<TRIPOS>BOND
     1     1     3 2   
     2     1     4 1   
     3     1     5 1   
     4     2     3 1   
     5     2     6 2   
     6     3    16 1   
     7     4     6 1   
     8     5     7 1   
     9     5     9 2   
    10     6    12 1   
    11     7     8 1   
    12     7    21 1   
    13     8    10 2   
    14     9    10 1   
    15     9    22 1   
    16    10    23 1   
    17    11    14 ar  
    18    11    15 ar  
    19    11    32 1   
    20    12    13 1   
    21    12    24 1   
    22    12    25 1   
    23    13    14 1   
    24    14    19 ar  
    25    15    17 1   
    26    15    20 ar  
    27    16    26 1   
    28    16    27 1   
    29    16    28 1   
    30    18    19 ar  
    31    18    20 ar  
    32    18    29 1   
    33    19    30 1   
    34    20    31 1   
@<TRIPOS>SUBSTRUCTURE
     1 72O         1 TEMP              0 ****  ****    0 ROOT
