@<TRIPOS>MOLECULE
72O
   32    34     1     0     0
SMALL
abcg2


@<TRIPOS>ATOM
      1 C1           2.9180    -0.1020     0.3850 cc         1 72O      -0.196000
      2 N2           1.5780    -1.4880     1.6360 nd         1 72O      -0.642000
      3 C3           2.8410    -1.0290     1.3900 cd         1 72O       0.306300
      4 S4           1.3460     0.1930    -0.2620 ss         1 72O       0.080600
      5 C5           4.0650     0.6030    -0.1470 cc         1 72O      -0.074000
      6 C6           0.7070    -0.9480     0.8510 cc         1 72O       0.405700
      7 N7           5.1250     0.9810     0.6000 na         1 72O       0.007800
      8 N8           6.0590     1.6120    -0.0970 nc         1 72O      -0.513800
      9 C9           4.3430     1.0300    -1.4320 cd         1 72O      -0.213000
     10 C10          5.5980     1.6490    -1.3340 cd         1 72O       0.238900
     11 C11         -3.2660     0.5320    -0.9980 ca         1 72O      -0.138000
     12 C12         -0.7420    -1.3010     0.8440 c3         1 72O       0.130300
     13 O13         -1.3950    -0.3110     0.0860 os         1 72O      -0.355100
     14 C14         -2.7110    -0.4490    -0.1760 ca         1 72O       0.152100
     15 C15         -4.6100     0.4630    -1.3080 ca         1 72O       0.154000
     16 C16          3.9790    -1.5600     2.1960 c3         1 72O      -0.128400
     17 CL1         -5.2940     1.6840    -2.3290 cl         1 72O      -0.196000
     18 C18         -4.8520    -1.5160    -0.0120 ca         1 72O      -0.064000
     19 C19         -3.5040    -1.4770     0.3220 ca         1 72O      -0.194000
     20 C20         -5.4240    -0.5540    -0.8270 ca         1 72O      -0.136000
     21 H1           5.2390     0.8700     1.5950 hn         1 72O       0.373000
     22 H2           3.7360     0.8920    -2.3120 ha         1 72O       0.149000
     23 H3           6.1780     2.1110    -2.1190 h4         1 72O       0.039100
     24 H5          -0.8720    -2.2940     0.3980 h1         1 72O       0.066200
     25 H6          -1.1130    -1.3430     1.8730 h1         1 72O       0.066200
     26 H7           4.1650    -0.9480     3.0820 hc         1 72O       0.053700
     27 H8           3.7540    -2.5680     2.5410 hc         1 72O       0.053700
     28 H9           4.9030    -1.5990     1.6200 hc         1 72O       0.053700
     29 H10         -5.4680    -2.3160     0.3770 ha         1 72O       0.119000
     30 H11         -3.1000    -2.2470     0.9660 ha         1 72O       0.123000
     31 H12         -6.4740    -0.5940    -1.0820 ha         1 72O       0.134000
     32 H4          -2.6440     1.3290    -1.3830 ha         1 72O       0.144000
@<TRIPOS>BOND
     1     1     3 2   
     2     1     4 1   
     3     1     5 1   
     4     2     3 1   
     5     2     6 2   
     6     3    16 1   
     7     4     6 1   
     8     5     7 1   
     9     5     9 2   
    10     6    12 1   
    11     7     8 1   
    12     7    21 1   
    13     8    10 2   
    14     9    10 1   
    15     9    22 1   
    16    10    23 1   
    17    11    14 ar  
    18    11    15 ar  
    19    11    32 1   
    20    12    13 1   
    21    12    24 1   
    22    12    25 1   
    23    13    14 1   
    24    14    19 ar  
    25    15    17 1   
    26    15    20 ar  
    27    16    26 1   
    28    16    27 1   
    29    16    28 1   
    30    18    19 ar  
    31    18    20 ar  
    32    18    29 1   
    33    19    30 1   
    34    20    31 1   
@<TRIPOS>SUBSTRUCTURE
     1 72O         1 TEMP              0 ****  ****    0 ROOT
