@<TRIPOS>MOLECULE
72P
   42    45     1     0     0
SMALL
bcc


@<TRIPOS>ATOM
      1 CL1         -3.7320    -3.7440    -0.9260 cl         1 72P      -0.140400
      2 C1          -2.5670    -2.6090    -0.3160 ca         1 72P       0.039400
      3 C2          -1.3300    -3.0930     0.1260 ca         1 72P      -0.154000
      4 C3          -0.3810    -2.2160     0.6150 ca         1 72P      -0.055000
      5 C4          -0.6760    -0.8550     0.6640 ca         1 72P      -0.058800
      6 C5           0.0430     0.3080     1.0840 cc         1 72P      -0.045600
      7 S1           1.6350     0.3310     1.7850 ss         1 72P      -0.222500
      8 C6           2.7150     0.1750     0.3830 ca         1 72P      -0.003100
      9 C7           2.2880     0.3400    -0.9290 ca         1 72P      -0.151000
     10 C8           3.2080     0.2130    -1.9620 ca         1 72P      -0.159000
     11 C9           4.5400    -0.0660    -1.6940 ca         1 72P      -0.101000
     12 C10          4.9750    -0.2260    -0.3810 ca         1 72P      -0.130600
     13 C11          6.4380    -0.5320    -0.0710 c          1 72P       0.924200
     14 O1           6.7400    -0.6490     1.1320 o          1 72P      -0.823300
     15 O2           7.2020    -0.6380    -1.0480 o          1 72P      -0.823300
     16 C12          4.0510    -0.1080     0.6510 ca         1 72P      -0.087000
     17 C13         -0.7710     1.3960     0.8840 cd         1 72P       0.010700
     18 C14         -0.5180     2.8280     1.1710 c3         1 72P      -0.046900
     19 N1          -1.9640     0.9610     0.3610 na         1 72P      -0.010500
     20 C15         -3.0750     1.7780     0.0340 ca         1 72P       0.001800
     21 C16         -3.0300     2.5890    -1.0930 ca         1 72P      -0.119000
     22 C17         -4.1230     3.3830    -1.4080 ca         1 72P      -0.126500
     23 C18         -5.2600     3.3520    -0.6110 ca         1 72P      -0.128000
     24 C19         -5.3040     2.5290     0.5070 ca         1 72P      -0.126500
     25 C20         -4.2080     1.7430     0.8360 ca         1 72P      -0.119000
     26 C21         -1.9300    -0.4070     0.2150 ca         1 72P      -0.041200
     27 C22         -2.8980    -1.2680    -0.2870 ca         1 72P      -0.141000
     28 H1          -1.1210    -4.1530     0.0830 ha         1 72P       0.143000
     29 H2           0.5780    -2.5850     0.9570 ha         1 72P       0.161000
     30 H3           1.2520     0.5620    -1.1470 ha         1 72P       0.112000
     31 H4           2.8750     0.3380    -2.9850 ha         1 72P       0.104000
     32 H5           5.2470    -0.1610    -2.5070 ha         1 72P       0.146000
     33 H7           4.3840    -0.2450     1.6730 ha         1 72P       0.155000
     34 H8          -0.5650     3.4380     0.2680 hc         1 72P       0.058033
     35 H9          -1.2480     3.2290     1.8760 hc         1 72P       0.058033
     36 H10          0.4730     2.9430     1.6030 hc         1 72P       0.058033
     37 H11         -2.1480     2.5920    -1.7200 ha         1 72P       0.150000
     38 H12         -4.0880     4.0190    -2.2820 ha         1 72P       0.133000
     39 H13         -6.1130     3.9690    -0.8630 ha         1 72P       0.129000
     40 H14         -6.1890     2.5010     1.1280 ha         1 72P       0.133000
     41 H15         -4.2310     1.1060     1.7110 ha         1 72P       0.150000
     42 H16         -3.8590    -0.9150    -0.6380 ha         1 72P       0.145000
@<TRIPOS>BOND
     1     1     2 1   
     2     2     3 ar  
     3     2    27 ar  
     4     3     4 ar  
     5     3    28 1   
     6     4     5 ar  
     7     4    29 1   
     8     5     6 1   
     9     5    26 ar  
    10     6     7 1   
    11     6    17 2   
    12     7     8 1   
    13     8     9 ar  
    14     8    16 ar  
    15     9    10 ar  
    16     9    30 1   
    17    10    11 ar  
    18    10    31 1   
    19    11    12 ar  
    20    11    32 1   
    21    12    13 1   
    22    12    16 ar  
    23    13    14 1   
    24    13    15 1   
    25    16    33 1   
    26    17    18 1   
    27    17    19 1   
    28    18    34 1   
    29    18    35 1   
    30    18    36 1   
    31    19    20 1   
    32    19    26 1   
    33    20    21 ar  
    34    20    25 ar  
    35    21    22 ar  
    36    21    37 1   
    37    22    23 ar  
    38    22    38 1   
    39    23    24 ar  
    40    23    39 1   
    41    24    25 ar  
    42    24    40 1   
    43    25    41 1   
    44    26    27 ar  
    45    27    42 1   
@<TRIPOS>SUBSTRUCTURE
     1 72P         1 TEMP              0 ****  ****    0 ROOT
