@<TRIPOS>MOLECULE
72P
   42    45     1     0     0
SMALL
No Charge or Current Charge


@<TRIPOS>ATOM
      1 Cl1         -3.0960    -4.0200    -0.8930 cl         1 72P      -0.232000
      2 C1          -2.0790    -2.6960    -0.3410 ca         1 72P       0.131000
      3 C2          -0.8960    -2.9750     0.3830 ca         1 72P      -0.136000
      4 C3          -0.0720    -1.9210     0.8330 ca         1 72P      -0.037000
      5 C4          -0.4730    -0.6140     0.5320 ca         1 72P      -0.058800
      6 C5           0.1130     0.6500     0.8540 cc         1 72P      -0.045600
      7 S1           1.4990     1.0080     1.8780 ss         1 72P      -0.095600
      8 C6           2.6250     0.6010     0.5420 ca         1 72P      -0.130000
      9 C7           2.5360     1.2300    -0.7140 ca         1 72P      -0.133000
     10 C8           3.4370     0.8900    -1.7340 ca         1 72P      -0.141000
     11 C9           4.4340    -0.0740    -1.5070 ca         1 72P      -0.083000
     12 C10          4.5470    -0.7100    -0.2480 ca         1 72P      -0.130600
     13 C11          5.6280    -1.7490     0.0050 c          1 72P       0.713600
     14 O1           5.6920    -2.2720     1.1100 o          1 72P      -0.718000
     15 O2           6.3990    -2.0270    -0.9030 o          1 72P      -0.718000
     16 C12          3.6320    -0.3550     0.7720 ca         1 72P      -0.069000
     17 C13         -0.7090     1.6670     0.3830 cd         1 72P       0.010700
     18 C14         -0.5920     3.1620     0.5870 c3         1 72P      -0.046900
     19 N1          -1.7640     1.0360    -0.3320 na         1 72P      -0.010500
     20 C15         -2.9840     1.7070    -0.2620 ca         1 72P       0.001800
     21 C16         -3.4330     2.4620    -1.3620 ca         1 72P      -0.101000
     22 C17         -4.6630     3.1390    -1.2990 ca         1 72P      -0.108500
     23 C18         -5.4500     3.0610    -0.1380 ca         1 72P      -0.110000
     24 C19         -5.0080     2.3050     0.9610 ca         1 72P      -0.108500
     25 C20         -3.7780     1.6280     0.9000 ca         1 72P      -0.101000
     26 C21         -1.6150    -0.3370    -0.1670 ca         1 72P      -0.041200
     27 C22         -2.4520    -1.3660    -0.6250 ca         1 72P      -0.123000
     28 H1          -0.6220    -4.0060     0.5950 ha         1 72P       0.125000
     29 H2           0.8400    -2.1150     1.3940 ha         1 72P       0.143000
     30 H3           1.7780     1.9850    -0.9030 ha         1 72P       0.094000
     31 H4           3.3650     1.3750    -2.7050 ha         1 72P       0.086000
     32 H5           5.1210    -0.3220    -2.3130 ha         1 72P       0.128000
     33 H7           3.6960    -0.8280     1.7490 ha         1 72P       0.137000
     34 H8          -0.9600     3.7130    -0.2860 hc         1 72P       0.058033
     35 H9          -1.1740     3.4830     1.4580 hc         1 72P       0.058033
     36 H10          0.4480     3.4680     0.7470 hc         1 72P       0.058033
     37 H11         -2.8260     2.5240    -2.2630 ha         1 72P       0.132000
     38 H12         -5.0060     3.7230    -2.1510 ha         1 72P       0.115000
     39 H13         -6.4030     3.5850    -0.0900 ha         1 72P       0.111000
     40 H14         -5.6180     2.2430     1.8600 ha         1 72P       0.115000
     41 H15         -3.4400     1.0430     1.7520 ha         1 72P       0.132000
     42 H16         -3.3580    -1.1460    -1.1820 ha         1 72P       0.127000
@<TRIPOS>BOND
     1     1     2 1   
     2     2     3 ar  
     3     2    27 ar  
     4     3     4 ar  
     5     3    28 1   
     6     4     5 ar  
     7     4    29 1   
     8     5     6 1   
     9     5    26 ar  
    10     6     7 1   
    11     6    17 2   
    12     7     8 1   
    13     8     9 ar  
    14     8    16 ar  
    15     9    10 ar  
    16     9    30 1   
    17    10    11 ar  
    18    10    31 1   
    19    11    12 ar  
    20    11    32 1   
    21    12    13 1   
    22    12    16 ar  
    23    13    14 1   
    24    13    15 1   
    25    16    33 1   
    26    17    18 1   
    27    17    19 1   
    28    18    34 1   
    29    18    35 1   
    30    18    36 1   
    31    19    20 1   
    32    19    26 1   
    33    20    21 ar  
    34    20    25 ar  
    35    21    22 ar  
    36    21    37 1   
    37    22    23 ar  
    38    22    38 1   
    39    23    24 ar  
    40    23    39 1   
    41    24    25 ar  
    42    24    40 1   
    43    25    41 1   
    44    26    27 ar  
    45    27    42 1   
@<TRIPOS>SUBSTRUCTURE
     1 72P         1 TEMP              0 ****  ****    0 ROOT
