@<TRIPOS>MOLECULE
72Q
   38    40     1     0     0
SMALL
No Charge or Current Charge


@<TRIPOS>ATOM
      1 N1          -4.4260    -1.1440     3.5960 n1         1 72Q      -0.422000
      2 C16         -4.3290    -0.7460     2.5030 cg         1 72Q       0.312000
      3 C11         -4.1990    -0.2610     1.1550 ca         1 72Q       0.027000
      4 C12         -2.9260     0.0440     0.6320 ca         1 72Q      -0.099000
      5 C13         -2.8000     0.5160    -0.6910 ca         1 72Q       0.115100
      6 C14         -3.9440     0.7020    -1.4820 ca         1 72Q      -0.144000
      7 C15         -5.2100     0.3990    -0.9600 ca         1 72Q       0.185000
      8 F3          -6.3090     0.5730    -1.7250 f          1 72Q      -0.163000
      9 C10         -5.3430    -0.0830     0.3510 ca         1 72Q      -0.118000
     10 O4          -1.5700     0.8320    -1.2210 os         1 72Q      -0.234200
     11 C2          -0.4240     0.1420    -0.9010 ca         1 72Q       0.219100
     12 C3          -0.4150    -1.2600    -0.8890 ca         1 72Q      -0.201000
     13 C4           0.7770    -1.9560    -0.6280 ca         1 72Q       0.022000
     14 C8           0.7650     0.8340    -0.6310 ca         1 72Q      -0.183300
     15 C9           0.9460     2.3310    -0.6820 c5         1 72Q       0.236600
     16 F2          -0.1110     3.0510    -0.1140 f          1 72Q      -0.226000
     17 C5           2.2740     2.5070     0.1380 c5         1 72Q       0.136300
     18 F1           1.9940     2.6360     1.5080 f          1 72Q      -0.225000
     19 C7           1.9520     0.1650    -0.3440 ca         1 72Q       0.054700
     20 C6           3.0880     1.1720    -0.1320 c5         1 72Q       0.173600
     21 O1           3.9630     0.8500     0.9550 oh         1 72Q      -0.614000
     22 C1           1.9820    -1.2610    -0.3670 ca         1 72Q      -0.255500
     23 S1           3.4800    -2.2670    -0.1280 sy         1 72Q       1.065500
     24 O2           4.0010    -2.0430     1.2270 o          1 72Q      -0.512500
     25 O3           3.1950    -3.6330    -0.5860 o          1 72Q      -0.512500
     26 C17          4.6930    -1.5950    -1.2720 c3         1 72Q      -0.337100
     27 H1          -2.0420    -0.0790     1.2540 ha         1 72Q       0.154000
     28 H2          -3.8510     1.0770    -2.4970 ha         1 72Q       0.152000
     29 H3          -6.3320    -0.3130     0.7390 ha         1 72Q       0.151000
     30 H4          -1.3240    -1.8130    -1.1110 ha         1 72Q       0.137000
     31 H5           0.7530    -3.0450    -0.6460 ha         1 72Q       0.153000
     32 H6           1.0690     2.6670    -1.7200 h1         1 72Q       0.069700
     33 H7           2.8290     3.3990    -0.1790 h1         1 72Q       0.074700
     34 H8           3.6610     1.2710    -1.0640 h1         1 72Q       0.047700
     35 H9           4.4700     1.6620     1.1730 ho         1 72Q       0.458000
     36 H10          4.9960    -0.6010    -0.9360 h1         1 72Q       0.101033
     37 H11          5.5560    -2.2680    -1.2760 h1         1 72Q       0.101033
     38 H12          4.2370    -1.5510    -2.2660 h1         1 72Q       0.101033
@<TRIPOS>BOND
     1     1     2 3   
     2     2     3 1   
     3     3     4 ar  
     4     3     9 ar  
     5     4     5 ar  
     6     4    27 1   
     7     5     6 ar  
     8     5    10 1   
     9     6     7 ar  
    10     6    28 1   
    11     7     8 1   
    12     7     9 ar  
    13     9    29 1   
    14    10    11 1   
    15    11    12 ar  
    16    11    14 ar  
    17    12    13 ar  
    18    12    30 1   
    19    13    22 ar  
    20    13    31 1   
    21    14    15 1   
    22    14    19 ar  
    23    15    16 1   
    24    15    17 1   
    25    15    32 1   
    26    17    18 1   
    27    17    20 1   
    28    17    33 1   
    29    19    20 1   
    30    19    22 ar  
    31    20    21 1   
    32    20    34 1   
    33    21    35 1   
    34    22    23 1   
    35    23    24 2   
    36    23    25 2   
    37    23    26 1   
    38    26    36 1   
    39    26    37 1   
    40    26    38 1   
@<TRIPOS>SUBSTRUCTURE
     1 72Q         1 TEMP              0 ****  ****    0 ROOT
