@<TRIPOS>MOLECULE
72Q
   38    40     1     0     0
SMALL
bcc


@<TRIPOS>ATOM
      1 N1          -5.5290    -0.8250     3.3670 n1         1 72Q      -0.332800
      2 C16         -5.0890    -0.5720     2.3330 cg         1 72Q       0.222800
      3 C11         -4.5450    -0.2590     1.0510 ca         1 72Q       0.027000
      4 C12         -3.2560     0.2610     0.9680 ca         1 72Q      -0.117000
      5 C13         -2.7520     0.5650    -0.2850 ca         1 72Q       0.115100
      6 C14         -3.4940     0.3610    -1.4380 ca         1 72Q      -0.162000
      7 C15         -4.7700    -0.1530    -1.3080 ca         1 72Q       0.149900
      8 F3          -5.4940    -0.3480    -2.4110 f          1 72Q      -0.127900
      9 C10         -5.3210    -0.4750    -0.0850 ca         1 72Q      -0.136000
     10 O4          -1.5100     1.1270    -0.3950 os         1 72Q      -0.234200
     11 C2          -0.4130     0.3400    -0.3300 ca         1 72Q       0.219100
     12 C3          -0.4470    -1.0470    -0.3500 ca         1 72Q      -0.219000
     13 C4           0.7410    -1.7600    -0.3450 ca         1 72Q       0.004000
     14 C8           0.8160     0.9860    -0.2690 ca         1 72Q      -0.183300
     15 C9           1.0780     2.4620    -0.2760 c5         1 72Q       0.217900
     16 F2           0.2230     3.1760     0.5360 f          1 72Q      -0.207300
     17 C5           2.5150     2.5440     0.2230 c5         1 72Q       0.117600
     18 F1           2.4980     2.4790     1.6040 f          1 72Q      -0.206300
     19 C7           2.0060     0.2740    -0.2580 ca         1 72Q       0.054700
     20 C6           3.1550     1.2560    -0.3130 c5         1 72Q       0.150400
     21 O1           4.2680     0.8390     0.4060 oh         1 72Q      -0.551800
     22 C1           1.9750    -1.1190    -0.3110 ca         1 72Q      -0.255500
     23 S1           3.4120    -2.1800    -0.2920 sy         1 72Q       1.096300
     24 O2           4.1400    -2.0120     0.9590 o          1 72Q      -0.583300
     25 O3           2.9400    -3.5270    -0.6170 o          1 72Q      -0.583300
     26 C17          4.4140    -1.6420    -1.6570 c3         1 72Q      -0.226300
     27 H1          -2.6680     0.4310     1.8600 ha         1 72Q       0.172000
     28 H2          -3.0890     0.6050    -2.4120 ha         1 72Q       0.170000
     29 H3          -6.3220    -0.8770    -0.0150 ha         1 72Q       0.169000
     30 H4          -1.3800    -1.5930    -0.3920 ha         1 72Q       0.155000
     31 H5           0.6880    -2.8390    -0.3810 ha         1 72Q       0.171000
     32 H6           1.0050     2.8700    -1.2880 h1         1 72Q       0.069700
     33 H7           3.0420     3.4510    -0.0740 h1         1 72Q       0.074700
     34 H8           3.3910     1.4260    -1.3740 h1         1 72Q       0.047700
     35 H9           5.0300     1.3560     0.1230 ho         1 72Q       0.419000
     36 H10          4.8140    -0.6520    -1.4710 h1         1 72Q       0.101033
     37 H11          5.2320    -2.3580    -1.7350 h1         1 72Q       0.101033
     38 H12          3.8190    -1.6610    -2.5660 h1         1 72Q       0.101033
@<TRIPOS>BOND
     1     1     2 3   
     2     2     3 1   
     3     3     4 ar  
     4     3     9 ar  
     5     4     5 ar  
     6     4    27 1   
     7     5     6 ar  
     8     5    10 1   
     9     6     7 ar  
    10     6    28 1   
    11     7     8 1   
    12     7     9 ar  
    13     9    29 1   
    14    10    11 1   
    15    11    12 ar  
    16    11    14 ar  
    17    12    13 ar  
    18    12    30 1   
    19    13    22 ar  
    20    13    31 1   
    21    14    15 1   
    22    14    19 ar  
    23    15    16 1   
    24    15    17 1   
    25    15    32 1   
    26    17    18 1   
    27    17    20 1   
    28    17    33 1   
    29    19    20 1   
    30    19    22 ar  
    31    20    21 1   
    32    20    34 1   
    33    21    35 1   
    34    22    23 1   
    35    23    24 2   
    36    23    25 2   
    37    23    26 1   
    38    26    36 1   
    39    26    37 1   
    40    26    38 1   
@<TRIPOS>SUBSTRUCTURE
     1 72Q         1 TEMP              0 ****  ****    0 ROOT
