@<TRIPOS>MOLECULE
72R
   16    17     1     0     0
SMALL
bcc


@<TRIPOS>ATOM
      1 O11         -3.5090     0.2430     0.0230 o          1 72R      -0.538500
      2 C8          -2.3050     0.2710     0.0180 c          1 72R       0.606500
      3 N7          -1.4800     1.3460     0.0010 ns         1 72R      -0.474100
      4 C6          -0.1380     0.9680    -0.0020 ca         1 72R       0.089600
      5 C5           0.9800     1.7770    -0.0190 ca         1 72R      -0.152000
      6 C4           2.2250     1.1570    -0.0180 ca         1 72R      -0.105000
      7 C3           2.3280    -0.2260    -0.0000 ca         1 72R       0.090900
      8 F10          3.5510    -0.7780    -0.0000 f          1 72R      -0.135900
      9 C2           1.2190    -1.0480     0.0170 ca         1 72R      -0.057000
     10 C1          -0.0170    -0.4230     0.0160 ca         1 72R      -0.222600
     11 C9          -1.3690    -0.9690     0.0310 c          1 72R       0.508700
     12 O12         -1.7610    -2.1040     0.0500 o          1 72R      -0.434100
     13 H1          -1.7960     2.3040    -0.0120 hn         1 72R       0.346500
     14 H2           0.9050     2.8550    -0.0330 ha         1 72R       0.150000
     15 H3           3.1240     1.7600    -0.0310 ha         1 72R       0.155000
     16 H4           1.3120    -2.1260     0.0310 ha         1 72R       0.170000
@<TRIPOS>BOND
     1     1     2 2   
     2     2     3 1   
     3     2    11 1   
     4     3     4 1   
     5     3    13 1   
     6     4     5 ar  
     7     4    10 ar  
     8     5     6 ar  
     9     5    14 1   
    10     6     7 ar  
    11     6    15 1   
    12     7     8 1   
    13     7     9 ar  
    14     9    10 ar  
    15     9    16 1   
    16    10    11 1   
    17    11    12 2   
@<TRIPOS>SUBSTRUCTURE
     1 72R         1 TEMP              0 ****  ****    0 ROOT
