@<TRIPOS>MOLECULE
72R
   16    17     1     0     0
SMALL
No Charge or Current Charge


@<TRIPOS>ATOM
      1 O11         -3.5960     0.3130     0.0250 o          1 72R      -0.463000
      2 C8          -2.3710     0.2680     0.0190 c          1 72R       0.464000
      3 N7          -1.4900     1.3270    -0.0000 ns         1 72R      -0.407100
      4 C6          -0.1340     0.9730    -0.0030 ca         1 72R       0.089600
      5 C5           0.9950     1.7980    -0.0200 ca         1 72R      -0.134000
      6 C4           2.2640     1.1770    -0.0180 ca         1 72R      -0.087000
      7 C3           2.3740    -0.2350     0.0000 ca         1 72R       0.126000
      8 F10          3.5970    -0.8080     0.0010 f          1 72R      -0.171000
      9 C2           1.2220    -1.0510     0.0170 ca         1 72R      -0.039000
     10 C1          -0.0280    -0.4130     0.0160 ca         1 72R      -0.222600
     11 C9          -1.4100    -0.9890     0.0310 c          1 72R       0.508700
     12 O12         -1.7210    -2.1770     0.0490 o          1 72R      -0.434100
     13 H1          -1.8040     2.2920    -0.0110 hn         1 72R       0.346500
     14 H2           0.8990     2.8810    -0.0340 ha         1 72R       0.132000
     15 H3           3.1660     1.7850    -0.0310 ha         1 72R       0.137000
     16 H4           1.3070    -2.1360     0.0320 ha         1 72R       0.152000
@<TRIPOS>BOND
     1     1     2 2   
     2     2     3 1   
     3     2    11 1   
     4     3     4 1   
     5     3    13 1   
     6     4     5 ar  
     7     4    10 ar  
     8     5     6 ar  
     9     5    14 1   
    10     6     7 ar  
    11     6    15 1   
    12     7     8 1   
    13     7     9 ar  
    14     9    10 ar  
    15     9    16 1   
    16    10    11 1   
    17    11    12 2   
@<TRIPOS>SUBSTRUCTURE
     1 72R         1 TEMP              0 ****  ****    0 ROOT
