@<TRIPOS>MOLECULE
72S
   19    20     1     0     0
SMALL
abcg2


@<TRIPOS>ATOM
      1 C10         -2.2760     2.1600     0.0300 c3         1 72S      -0.042800
      2 C5          -1.7780     0.7480     0.0290 ca         1 72S      -0.124300
      3 C4          -2.6340    -0.3550     0.0470 ca         1 72S      -0.045000
      4 C3          -2.1800    -1.6720     0.0470 ca         1 72S      -0.155000
      5 C2          -0.8200    -1.9410     0.0290 ca         1 72S      -0.001000
      6 C1           0.0500    -0.8620     0.0100 ca         1 72S      -0.242600
      7 C6          -0.4250     0.4510     0.0090 ca         1 72S       0.105600
      8 N7           0.6360     1.3580    -0.0130 ns         1 72S      -0.411100
      9 C8           1.8360     0.7260    -0.0290 c          1 72S       0.461000
     10 O11          2.9400     1.2070    -0.0500 o          1 72S      -0.469000
     11 C9           1.5030    -0.7910    -0.0130 c          1 72S       0.510700
     12 O12          2.3400    -1.6550    -0.0190 o          1 72S      -0.444100
     13 H1          -1.9370     2.7040    -0.8530 hc         1 72S       0.046033
     14 H2          -3.3640     2.1910     0.0400 hc         1 72S       0.046033
     15 H3          -1.9200     2.7070     0.9050 hc         1 72S       0.046033
     16 H4          -3.7020    -0.1740     0.0610 ha         1 72S       0.116000
     17 H5          -2.8960    -2.4820     0.0610 ha         1 72S       0.124000
     18 H6          -0.4470    -2.9560     0.0280 ha         1 72S       0.134000
     19 H7           0.5290     2.3610    -0.0210 hn         1 72S       0.344500
@<TRIPOS>BOND
     1     1     2 1   
     2     1    13 1   
     3     1    14 1   
     4     1    15 1   
     5     2     3 ar  
     6     2     7 ar  
     7     3     4 ar  
     8     3    16 1   
     9     4     5 ar  
    10     4    17 1   
    11     5     6 ar  
    12     5    18 1   
    13     6     7 ar  
    14     6    11 1   
    15     7     8 1   
    16     8     9 1   
    17     8    19 1   
    18     9    10 2   
    19     9    11 1   
    20    11    12 2   
@<TRIPOS>SUBSTRUCTURE
     1 72S         1 TEMP              0 ****  ****    0 ROOT
