@<TRIPOS>MOLECULE
72S
   19    20     1     0     0
SMALL
No Charge or Current Charge


@<TRIPOS>ATOM
      1 C10         -2.3040     2.1800     0.0290 c3         1 72S      -0.042800
      2 C5          -1.7940     0.7450     0.0290 ca         1 72S      -0.124300
      3 C4          -2.6850    -0.3530     0.0480 ca         1 72S      -0.045000
      4 C3          -2.1980    -1.6830     0.0480 ca         1 72S      -0.155000
      5 C2          -0.8120    -1.9460     0.0280 ca         1 72S      -0.001000
      6 C1           0.0560    -0.8460     0.0090 ca         1 72S      -0.242600
      7 C6          -0.4220     0.4590     0.0090 ca         1 72S       0.105600
      8 N7           0.6680     1.3410    -0.0120 ns         1 72S      -0.411100
      9 C8           1.9070     0.7410    -0.0280 c          1 72S       0.461000
     10 O11          3.0040     1.2890    -0.0480 o          1 72S      -0.469000
     11 C9           1.5510    -0.8000    -0.0150 c          1 72S       0.510700
     12 O12          2.3250    -1.7540    -0.0210 o          1 72S      -0.444100
     13 H1          -1.9660     2.7170    -0.8660 hc         1 72S       0.046033
     14 H2          -3.4000     2.2210     0.0450 hc         1 72S       0.046033
     15 H3          -1.9390     2.7260     0.9070 hc         1 72S       0.046033
     16 H4          -3.7600    -0.1800     0.0640 ha         1 72S       0.116000
     17 H5          -2.9010    -2.5130     0.0630 ha         1 72S       0.124000
     18 H6          -0.4320    -2.9660     0.0270 ha         1 72S       0.134000
     19 H7           0.5560     2.3480    -0.0160 hn         1 72S       0.344500
@<TRIPOS>BOND
     1     1     2 1   
     2     1    13 1   
     3     1    14 1   
     4     1    15 1   
     5     2     3 ar  
     6     2     7 ar  
     7     3     4 ar  
     8     3    16 1   
     9     4     5 ar  
    10     4    17 1   
    11     5     6 ar  
    12     5    18 1   
    13     6     7 ar  
    14     6    11 1   
    15     7     8 1   
    16     8     9 1   
    17     8    19 1   
    18     9    10 2   
    19     9    11 1   
    20    11    12 2   
@<TRIPOS>SUBSTRUCTURE
     1 72S         1 TEMP              0 ****  ****    0 ROOT
