@<TRIPOS>MOLECULE
72T
   19    20     1     0     0
SMALL
No Charge or Current Charge


@<TRIPOS>ATOM
      1 F13         -3.4300     0.0090     0.0040 f          1 72T      -0.110667
      2 C10         -2.1990    -0.5520     0.0040 c3         1 72T       0.367300
      3 F14         -2.1360    -1.3510     1.0930 f          1 72T      -0.110667
      4 F15         -2.1380    -1.3570    -1.0810 f          1 72T      -0.110667
      5 C5          -1.0710     0.4810     0.0000 ca         1 72T      -0.258300
      6 C4          -1.3280     1.8770    -0.0030 ca         1 72T       0.004000
      7 C3          -0.2650     2.8120    -0.0070 ca         1 72T      -0.165000
      8 C2           1.0780     2.3830    -0.0070 ca         1 72T       0.031000
      9 C1           1.3130     1.0040    -0.0040 ca         1 72T      -0.256600
     10 C6           0.2730     0.0830    -0.0000 ca         1 72T       0.162600
     11 N7           0.8170    -1.2090     0.0030 ns         1 72T      -0.407100
     12 C8           2.1910    -1.2680     0.0010 c          1 72T       0.464000
     13 O11          2.8990    -2.2700     0.0030 o          1 72T      -0.449000
     14 C9           2.6060     0.2550    -0.0030 c          1 72T       0.511700
     15 O12          3.7400     0.7280    -0.0060 o          1 72T      -0.434100
     16 H1          -2.3500     2.2510    -0.0030 ha         1 72T       0.136000
     17 H2          -0.4870     3.8760    -0.0090 ha         1 72T       0.133000
     18 H3           1.8980     3.0990    -0.0100 ha         1 72T       0.139000
     19 H4           0.2420    -2.0430     0.0050 hn         1 72T       0.356500
@<TRIPOS>BOND
     1     1     2 1   
     2     2     3 1   
     3     2     4 1   
     4     2     5 1   
     5     5     6 ar  
     6     5    10 ar  
     7     6     7 ar  
     8     6    16 1   
     9     7     8 ar  
    10     7    17 1   
    11     8     9 ar  
    12     8    18 1   
    13     9    10 ar  
    14     9    14 1   
    15    10    11 1   
    16    11    12 1   
    17    11    19 1   
    18    12    13 2   
    19    12    14 1   
    20    14    15 2   
@<TRIPOS>SUBSTRUCTURE
     1 72T         1 TEMP              0 ****  ****    0 ROOT
