@<TRIPOS>MOLECULE
72T
   19    20     1     0     0
SMALL
abcg2


@<TRIPOS>ATOM
      1 F13         -3.3660     0.0540     0.0120 f          1 72T      -0.110667
      2 C10         -2.1640    -0.5170     0.0020 c3         1 72T       0.367300
      3 F14         -2.0960    -1.3240     1.0720 f          1 72T      -0.110667
      4 F15         -2.1090    -1.3130    -1.0760 f          1 72T      -0.110667
      5 C5          -1.0510     0.4800     0.0010 ca         1 72T      -0.258300
      6 C4          -1.2980     1.8540    -0.0030 ca         1 72T       0.004000
      7 C3          -0.2700     2.7870    -0.0070 ca         1 72T      -0.165000
      8 C2           1.0510     2.3650    -0.0080 ca         1 72T       0.031000
      9 C1           1.3060     1.0060    -0.0050 ca         1 72T      -0.256600
     10 C6           0.2720     0.0650    -0.0000 ca         1 72T       0.162600
     11 N7           0.7880    -1.2260     0.0030 ns         1 72T      -0.407100
     12 C8           2.1500    -1.2250     0.0030 c          1 72T       0.464000
     13 O11          2.8950    -2.1680     0.0080 o          1 72T      -0.449000
     14 C9           2.5620     0.2680    -0.0040 c          1 72T       0.511700
     15 O12          3.7010     0.6480    -0.0080 o          1 72T      -0.434100
     16 H1          -2.3190     2.2120    -0.0020 ha         1 72T       0.136000
     17 H2          -0.5070     3.8410    -0.0090 ha         1 72T       0.133000
     18 H3           1.8650     3.0770    -0.0110 ha         1 72T       0.139000
     19 H4           0.2440    -2.0760     0.0140 hn         1 72T       0.356500
@<TRIPOS>BOND
     1     1     2 1   
     2     2     3 1   
     3     2     4 1   
     4     2     5 1   
     5     5     6 ar  
     6     5    10 ar  
     7     6     7 ar  
     8     6    16 1   
     9     7     8 ar  
    10     7    17 1   
    11     8     9 ar  
    12     8    18 1   
    13     9    10 ar  
    14     9    14 1   
    15    10    11 1   
    16    11    12 1   
    17    11    19 1   
    18    12    13 2   
    19    12    14 1   
    20    14    15 2   
@<TRIPOS>SUBSTRUCTURE
     1 72T         1 TEMP              0 ****  ****    0 ROOT
