@<TRIPOS>MOLECULE
72U
   22    23     1     0     0
SMALL
bcc


@<TRIPOS>ATOM
      1 C14         -4.4570     0.7650     0.0000 c3         1 72U       0.130700
      2 O13         -3.2970    -0.0720     0.0010 os         1 72U      -0.410900
      3 C10         -2.1180     0.5160     0.0000 c          1 72U       0.671700
      4 O15         -1.9650     1.7170    -0.0010 o          1 72U      -0.561000
      5 C5          -0.9950    -0.4440     0.0010 ca         1 72U      -0.203600
      6 C4          -1.1870    -1.8330    -0.0070 ca         1 72U      -0.009000
      7 C3          -0.1290    -2.7290    -0.0050 ca         1 72U      -0.197000
      8 C2           1.1790    -2.2590     0.0070 ca         1 72U       0.015000
      9 C1           1.3870    -0.8930     0.0150 ca         1 72U      -0.269600
     10 C6           0.3180     0.0120     0.0120 ca         1 72U       0.165600
     11 N7           0.7860     1.3170     0.0240 ns         1 72U      -0.465100
     12 C8           2.1450     1.3670     0.0300 c          1 72U       0.605500
     13 O11          2.8570     2.3370     0.0390 o          1 72U      -0.530500
     14 C9           2.6140    -0.1100     0.0260 c          1 72U       0.510700
     15 O12          3.7670    -0.4470     0.0300 o          1 72U      -0.440100
     16 H1          -5.3070     0.0900    -0.0030 h1         1 72U       0.053033
     17 H2          -4.4920     1.3910     0.8910 h1         1 72U       0.053033
     18 H3          -4.4880     1.3950    -0.8880 h1         1 72U       0.053033
     19 H4          -2.1950    -2.2250    -0.0180 ha         1 72U       0.153000
     20 H5          -0.3260    -3.7910    -0.0100 ha         1 72U       0.148000
     21 H6           2.0170    -2.9430     0.0100 ha         1 72U       0.154000
     22 H7           0.1760     2.1210     0.0180 hn         1 72U       0.373500
@<TRIPOS>BOND
     1     1     2 1   
     2     1    16 1   
     3     1    17 1   
     4     1    18 1   
     5     2     3 1   
     6     3     4 2   
     7     3     5 1   
     8     5     6 ar  
     9     5    10 ar  
    10     6     7 ar  
    11     6    19 1   
    12     7     8 ar  
    13     7    20 1   
    14     8     9 ar  
    15     8    21 1   
    16     9    10 ar  
    17     9    14 1   
    18    10    11 1   
    19    11    12 1   
    20    11    22 1   
    21    12    13 2   
    22    12    14 1   
    23    14    15 2   
@<TRIPOS>SUBSTRUCTURE
     1 72U         1 TEMP              0 ****  ****    0 ROOT
