@<TRIPOS>MOLECULE
72U
   22    23     1     0     0
SMALL
No Charge or Current Charge


@<TRIPOS>ATOM
      1 C14         -4.5440     0.7620    -0.0050 c3         1 72U       0.153900
      2 O13         -3.3740    -0.0770    -0.0040 os         1 72U      -0.434100
      3 C10         -2.1430     0.5290     0.0050 c          1 72U       0.622700
      4 O15         -1.9910     1.7440     0.0120 o          1 72U      -0.512000
      5 C5          -0.9920    -0.4440     0.0050 ca         1 72U      -0.203600
      6 C4          -1.2010    -1.8490    -0.0030 ca         1 72U       0.009000
      7 C3          -0.1070    -2.7480    -0.0030 ca         1 72U      -0.179000
      8 C2           1.2200    -2.2760     0.0050 ca         1 72U       0.033000
      9 C1           1.4100    -0.8900     0.0130 ca         1 72U      -0.269600
     10 C6           0.3400    -0.0030     0.0130 ca         1 72U       0.165600
     11 N7           0.8470     1.3040     0.0220 ns         1 72U      -0.398100
     12 C8           2.2170     1.4090     0.0290 c          1 72U       0.463000
     13 O11          2.8920     2.4330     0.0370 o          1 72U      -0.455000
     14 C9           2.6790    -0.1010     0.0230 c          1 72U       0.510700
     15 O12          3.8270    -0.5390     0.0260 o          1 72U      -0.440100
     16 H1          -5.4540     0.1480    -0.0120 h1         1 72U       0.053033
     17 H2          -4.5710     1.3980     0.8890 h1         1 72U       0.053033
     18 H3          -4.5630     1.4070    -0.8920 h1         1 72U       0.053033
     19 H4          -2.2100    -2.2580    -0.0100 ha         1 72U       0.135000
     20 H5          -0.2940    -3.8200    -0.0090 ha         1 72U       0.130000
     21 H6           2.0640    -2.9650     0.0060 ha         1 72U       0.136000
     22 H7           0.2380     2.1160     0.0240 hn         1 72U       0.373500
@<TRIPOS>BOND
     1     1     2 1   
     2     1    16 1   
     3     1    17 1   
     4     1    18 1   
     5     2     3 1   
     6     3     4 2   
     7     3     5 1   
     8     5     6 ar  
     9     5    10 ar  
    10     6     7 ar  
    11     6    19 1   
    12     7     8 ar  
    13     7    20 1   
    14     8     9 ar  
    15     8    21 1   
    16     9    10 ar  
    17     9    14 1   
    18    10    11 1   
    19    11    12 1   
    20    11    22 1   
    21    12    13 2   
    22    12    14 1   
    23    14    15 2   
@<TRIPOS>SUBSTRUCTURE
     1 72U         1 TEMP              0 ****  ****    0 ROOT
