@<TRIPOS>MOLECULE
72V
   19    20     1     0     0
SMALL
abcg2


@<TRIPOS>ATOM
      1 O11         -2.9320     0.0400    -0.0300 o          1 72V      -0.470000
      2 C8          -1.7260     0.0270    -0.0130 c          1 72V       0.462000
      3 C9          -0.8070     1.2750    -0.0160 c          1 72V       0.514700
      4 O12         -1.2190     2.4050    -0.0370 o          1 72V      -0.444100
      5 C1           0.5470     0.7470     0.0110 ca         1 72V      -0.244600
      6 C2           1.7820     1.3710     0.0220 ca         1 72V       0.002000
      7 C3           2.9210     0.5770     0.0490 ca         1 72V      -0.158000
      8 C4           2.8000    -0.8100     0.0640 ca         1 72V      -0.045000
      9 C5           1.5600    -1.4490     0.0540 ca         1 72V      -0.159000
     10 C6           0.4380    -0.6480     0.0270 ca         1 72V       0.103600
     11 N7          -0.9000    -1.0490     0.0130 n          1 72V      -0.313000
     12 C10         -1.3200    -2.4290     0.0250 c3         1 72V       0.093300
     13 H3           1.8550     2.4510     0.0100 ha         1 72V       0.133000
     14 H4           3.9020     1.0310     0.0580 ha         1 72V       0.124000
     15 H5           3.6950    -1.4190     0.0860 ha         1 72V       0.117000
     16 H6           1.4980    -2.5290     0.0660 ha         1 72V       0.128000
     17 H7          -0.9590    -2.9320     0.9220 h1         1 72V       0.051700
     18 H8          -2.4050    -2.4680     0.0160 h1         1 72V       0.051700
     19 H9          -0.9430    -2.9530    -0.8530 h1         1 72V       0.051700
@<TRIPOS>BOND
     1     1     2 2   
     2     2     3 1   
     3     2    11 1   
     4     3     4 2   
     5     3     5 1   
     6     5     6 ar  
     7     5    10 ar  
     8     6     7 ar  
     9     6    13 1   
    10     7     8 ar  
    11     7    14 1   
    12     8     9 ar  
    13     8    15 1   
    14     9    10 ar  
    15     9    16 1   
    16    10    11 1   
    17    11    12 1   
    18    12    17 1   
    19    12    18 1   
    20    12    19 1   
@<TRIPOS>SUBSTRUCTURE
     1 72V         1 TEMP              0 ****  ****    0 ROOT
