@<TRIPOS>MOLECULE
72V
   19    20     1     0     0
SMALL
No Charge or Current Charge


@<TRIPOS>ATOM
      1 O11         -3.0030     0.0250    -0.1080 o          1 72V      -0.470000
      2 C8          -1.7740     0.0430    -0.0700 c          1 72V       0.462000
      3 C9          -0.8300     1.3000    -0.0100 c          1 72V       0.514700
      4 O12         -1.1470     2.4870    -0.0160 o          1 72V      -0.444100
      5 C1           0.5460     0.7300     0.0520 ca         1 72V      -0.244600
      6 C2           1.7840     1.3880     0.0700 ca         1 72V       0.002000
      7 C3           2.9500     0.5930     0.0660 ca         1 72V      -0.158000
      8 C4           2.8620    -0.8190     0.0220 ca         1 72V      -0.045000
      9 C5           1.6040    -1.4570    -0.0020 ca         1 72V      -0.159000
     10 C6           0.4530    -0.6610     0.0570 ca         1 72V       0.103600
     11 N7          -0.9120    -1.0660    -0.0470 n          1 72V      -0.313000
     12 C10         -1.3710    -2.4630     0.0690 c3         1 72V       0.093300
     13 H3           1.8450     2.4750     0.0740 ha         1 72V       0.133000
     14 H4           3.9260     1.0720     0.0780 ha         1 72V       0.124000
     15 H5           3.7710    -1.4160    -0.0030 ha         1 72V       0.117000
     16 H6           1.5330    -2.5410    -0.0560 ha         1 72V       0.128000
     17 H7          -1.1020    -2.8570     1.0570 h1         1 72V       0.051700
     18 H8          -2.4590    -2.5230    -0.0570 h1         1 72V       0.051700
     19 H9          -0.8900    -3.0730    -0.7050 h1         1 72V       0.051700
@<TRIPOS>BOND
     1     1     2 2   
     2     2     3 1   
     3     2    11 1   
     4     3     4 2   
     5     3     5 1   
     6     5     6 ar  
     7     5    10 ar  
     8     6     7 ar  
     9     6    13 1   
    10     7     8 ar  
    11     7    14 1   
    12     8     9 ar  
    13     8    15 1   
    14     9    10 ar  
    15     9    16 1   
    16    10    11 1   
    17    11    12 1   
    18    12    17 1   
    19    12    18 1   
    20    12    19 1   
@<TRIPOS>SUBSTRUCTURE
     1 72V         1 TEMP              0 ****  ****    0 ROOT
