@<TRIPOS>MOLECULE
72W
   65    69     1     0     0
SMALL
abcg2


@<TRIPOS>ATOM
      1 C6           3.5050    -2.7240     1.9350 c5         1 72W       0.149300
      2 C7          -2.4650    -0.1290    -1.0990 ca         1 72W      -0.231600
      3 C8           1.6150    -0.6340     0.8720 cc         1 72W       0.419700
      4 C10          3.4550    -4.2470     1.8040 c5         1 72W       0.104300
      5 C13          2.6130    -4.3790     0.5330 c5         1 72W       0.158500
      6 C17         -3.5220     1.6720    -2.3310 ca         1 72W       0.092100
      7 C21          3.5110     0.5170    -2.8260 ca         1 72W       0.141900
      8 C22         -2.3780     3.0080     0.9990 cp         1 72W      -0.049000
      9 C14         -2.0410    -1.5520    -1.0690 c          1 72W       0.632700
     10 C11         -3.0830     0.3370    -2.2640 ca         1 72W       0.135100
     11 C2           3.5400    -2.2720     0.4650 c5         1 72W       0.314300
     12 C3           2.8210    -0.3260    -0.9160 ca         1 72W       0.114500
     13 C23          1.1380    -4.2250     0.7830 c2         1 72W      -0.273200
     14 C19          1.6420     1.4870    -1.8970 ca         1 72W       0.199300
     15 N15          3.7150    -0.3940    -1.8860 nb         1 72W      -0.166000
     16 N1           2.7180    -1.1030     0.2030 na         1 72W      -0.303300
     17 C4           1.7660     0.5860    -0.8460 ca         1 72W      -0.034600
     18 N5           1.0340     0.3700     0.2950 nd         1 72W      -0.567100
     19 O9           3.1200    -3.3580    -0.3160 os         1 72W      -0.418000
     20 C12         -2.2610     0.7530    -0.0340 ca         1 72W      -0.057000
     21 C16         -2.6660     2.0740    -0.1060 cp         1 72W      -0.053000
     22 C18         -3.3120     2.5200    -1.2650 ca         1 72W      -0.088000
     23 N20          2.5400     1.4270    -2.8790 nb         1 72W      -0.204000
     24 O24         -2.0800    -2.2330    -2.1060 o          1 72W      -0.651100
     25 O25          4.6000    -2.1860     2.6050 oh         1 72W      -0.677000
     26 N26         -1.6430    -2.0780     0.0900 ns         1 72W      -0.477900
     27 C27          0.3110    -3.5490    -0.0050 c2         1 72W      -0.202200
     28 C28         -1.1520     2.9550     1.6630 ca         1 72W      -0.077500
     29 C29         -3.3090     3.9690     1.3960 ca         1 72W      -0.077500
     30 O30          4.7600    -4.7200     1.6280 oh         1 72W      -0.684000
     31 O31         -3.2950    -0.4160    -3.3480 oh         1 72W      -0.577100
     32 O32         -4.1260     2.1420    -3.4400 oh         1 72W      -0.534100
     33 C33         -1.8090     4.7650     3.0640 ca         1 72W       0.171000
     34 C34         -0.8600     3.8300     2.6990 ca         1 72W      -0.154500
     35 C35         -3.0330     4.8520     2.4290 ca         1 72W      -0.154500
     36 F36         -1.5320     5.6180     4.0640 f          1 72W      -0.180000
     37 C37         -1.1680    -3.4420     0.2210 c3         1 72W       0.129200
     38 C38          0.5690     2.5240    -1.9460 c3         1 72W      -0.135700
     39 C39          1.0370     3.8380    -1.3190 c3         1 72W      -0.083100
     40 H1           2.5640    -2.4260     2.4100 h1         1 72W       0.038700
     41 H2           1.2830    -1.0660     1.8020 h5         1 72W       0.057800
     42 H3           2.9610    -4.7130     2.6660 h1         1 72W       0.051700
     43 H4           2.8000    -5.3440     0.0490 h1         1 72W       0.093700
     44 H5           4.2110     0.5170    -3.6540 h5         1 72W       0.053100
     45 H6           4.5570    -2.0020     0.1730 h2         1 72W       0.134700
     46 H7           0.7490    -4.7480     1.6540 ha         1 72W       0.171000
     47 H8          -1.7510     0.4240     0.8600 ha         1 72W       0.116000
     48 H9          -3.6210     3.5550    -1.3540 ha         1 72W       0.135000
     49 H10          4.5020    -2.3610     3.5460 ho         1 72W       0.516000
     50 H11         -1.6090    -1.5000     0.9130 hn         1 72W       0.325500
     51 H12          0.6880    -3.0480    -0.8910 ha         1 72W       0.207000
     52 H13         -0.4040     2.2350     1.3510 ha         1 72W       0.130000
     53 H14         -4.2740     4.0220     0.9080 ha         1 72W       0.130000
     54 H15          4.7260    -5.6790     1.5460 ho         1 72W       0.509000
     55 H16         -2.8680    -1.2930    -3.1590 ho         1 72W       0.534000
     56 H17         -4.1740     1.4540    -4.1140 ho         1 72W       0.487000
     57 H18          0.0970     3.7900     3.2040 ha         1 72W       0.131500
     58 H19         -3.7630     5.5870     2.7390 ha         1 72W       0.131500
     59 H20         -1.4360    -3.8010     1.2140 h1         1 72W       0.068200
     60 H21         -1.7020    -4.0630    -0.5000 h1         1 72W       0.068200
     61 H22          0.2850     2.6920    -2.9860 hc         1 72W       0.068700
     62 H23         -0.3130     2.1610    -1.4170 hc         1 72W       0.068700
     63 H24          1.3110     3.7000    -0.2730 hc         1 72W       0.039700
     64 H25          1.9000     4.2420    -1.8480 hc         1 72W       0.039700
     65 H26          0.2380     4.5780    -1.3560 hc         1 72W       0.039700
@<TRIPOS>BOND
     1     1     4 1   
     2     1    11 1   
     3     1    25 1   
     4     1    40 1   
     5     2     9 1   
     6     2    10 ar  
     7     2    20 ar  
     8     3    16 1   
     9     3    18 2   
    10     3    41 1   
    11     4     5 1   
    12     4    30 1   
    13     4    42 1   
    14     5    13 1   
    15     5    19 1   
    16     5    43 1   
    17     6    10 ar  
    18     6    22 ar  
    19     6    32 1   
    20     7    15 ar  
    21     7    23 ar  
    22     7    44 1   
    23     8    21 1   
    24     8    28 ar  
    25     8    29 ar  
    26     9    24 2   
    27     9    26 1   
    28    10    31 1   
    29    11    16 1   
    30    11    19 1   
    31    11    45 1   
    32    12    15 ar  
    33    12    16 1   
    34    12    17 ar  
    35    13    27 2   
    36    13    46 1   
    37    14    17 ar  
    38    14    23 ar  
    39    14    38 1   
    40    17    18 1   
    41    20    21 ar  
    42    20    47 1   
    43    21    22 ar  
    44    22    48 1   
    45    25    49 1   
    46    26    37 1   
    47    26    50 1   
    48    27    37 1   
    49    27    51 1   
    50    28    34 ar  
    51    28    52 1   
    52    29    35 ar  
    53    29    53 1   
    54    30    54 1   
    55    31    55 1   
    56    32    56 1   
    57    33    34 ar  
    58    33    35 ar  
    59    33    36 1   
    60    34    57 1   
    61    35    58 1   
    62    37    59 1   
    63    37    60 1   
    64    38    39 1   
    65    38    61 1   
    66    38    62 1   
    67    39    63 1   
    68    39    64 1   
    69    39    65 1   
@<TRIPOS>SUBSTRUCTURE
     1 72W         1 TEMP              0 ****  ****    0 ROOT
