@<TRIPOS>MOLECULE
72W
   65    69     1     0     0
SMALL
No Charge or Current Charge


@<TRIPOS>ATOM
      1 C6           3.7330    -2.8120     1.7220 c5         1 72W       0.149300
      2 C7          -2.4420    -0.2140    -1.0970 ca         1 72W      -0.231600
      3 C8           1.6120    -0.7340     0.7650 cc         1 72W       0.419700
      4 C10          3.5950    -4.3620     1.6600 c5         1 72W       0.104300
      5 C13          2.4710    -4.4940     0.5820 c5         1 72W       0.158500
      6 C17         -3.2690     1.5760    -2.5590 ca         1 72W       0.092100
      7 C21          3.5040     0.7430    -2.9610 ca         1 72W       0.141900
      8 C22         -2.5260     3.1010     0.8620 cp         1 72W      -0.049000
      9 C14         -2.0750    -1.6690    -0.8840 c          1 72W       0.632700
     10 C11         -2.9150     0.2270    -2.3550 ca         1 72W       0.135100
     11 C2           3.4710    -2.3970     0.2210 c5         1 72W       0.314300
     12 C3           2.8060    -0.3270    -1.0680 ca         1 72W       0.114500
     13 C23          1.1120    -4.0810     1.1600 c2         1 72W      -0.273200
     14 C19          1.7470     1.6940    -1.8070 ca         1 72W       0.199300
     15 N15          3.6570    -0.2990    -2.1120 nb         1 72W      -0.166000
     16 N1           2.6630    -1.2010    -0.0290 na         1 72W      -0.303300
     17 C4           1.8460     0.6370    -0.8750 ca         1 72W      -0.034600
     18 N5           1.0880     0.4010     0.2710 nd         1 72W      -0.567100
     19 O9           2.8400    -3.5300    -0.4240 os         1 72W      -0.418000
     20 C12         -2.3330     0.7410    -0.0540 ca         1 72W      -0.057000
     21 C16         -2.6830     2.1030    -0.2430 cp         1 72W      -0.053000
     22 C18         -3.1570     2.5020    -1.5150 ca         1 72W      -0.088000
     23 N20          2.5920     1.7420    -2.8630 nb         1 72W      -0.204000
     24 O24         -2.1940    -2.4960    -1.7820 o          1 72W      -0.651100
     25 O25          5.0370    -2.4710     2.2060 oh         1 72W      -0.677000
     26 N26         -1.6200    -2.0310     0.3620 ns         1 72W      -0.477900
     27 C27          0.0960    -3.7730     0.3330 c2         1 72W      -0.202200
     28 C28         -1.4280     3.0310     1.7580 ca         1 72W      -0.077500
     29 C29         -3.4610     4.1540     1.0360 ca         1 72W      -0.077500
     30 O30          4.8410    -4.9660     1.2530 oh         1 72W      -0.684000
     31 O31         -3.0380    -0.6530    -3.3950 oh         1 72W      -0.577100
     32 O32         -3.7210     1.9780    -3.7850 oh         1 72W      -0.534100
     33 C33         -2.2100     5.0050     2.9390 ca         1 72W       0.171000
     34 C34         -1.2710     3.9760     2.7870 ca         1 72W      -0.154500
     35 C35         -3.3050     5.0970     2.0680 ca         1 72W      -0.154500
     36 F36         -2.0600     5.9130     3.9280 f          1 72W      -0.180000
     37 C37         -1.3040    -3.4000     0.7650 c3         1 72W       0.129200
     38 C38          0.7160     2.8060    -1.6860 c3         1 72W      -0.135700
     39 C39          1.1270     3.8980    -0.6780 c3         1 72W      -0.083100
     40 H1           2.9680    -2.3930     2.3880 h1         1 72W       0.038700
     41 H2           1.2780    -1.2480     1.6580 h5         1 72W       0.057800
     42 H3           3.2720    -4.7730     2.6270 h1         1 72W       0.051700
     43 H4           2.4300    -5.4980     0.1370 h1         1 72W       0.093700
     44 H5           4.1820     0.7840    -3.8110 h5         1 72W       0.053100
     45 H6           4.4360    -2.2130    -0.2680 h2         1 72W       0.134700
     46 H7           0.9530    -4.0720     2.2410 ha         1 72W       0.171000
     47 H8          -1.9810     0.4430     0.9290 ha         1 72W       0.116000
     48 H9          -3.4170     3.5400    -1.7000 ha         1 72W       0.135000
     49 H10          5.5600    -3.2920     2.0180 ho         1 72W       0.516000
     50 H11         -1.5350    -1.2950     1.0490 hn         1 72W       0.325500
     51 H12          0.2290    -3.7950    -0.7510 ha         1 72W       0.207000
     52 H13         -0.6810     2.2490     1.6420 ha         1 72W       0.130000
     53 H14         -4.3210     4.2320     0.3740 ha         1 72W       0.130000
     54 H15          4.6870    -5.9370     1.1670 ho         1 72W       0.509000
     55 H16         -2.7500    -1.5370    -3.0300 ho         1 72W       0.534000
     56 H17         -3.7170     1.1740    -4.3530 ho         1 72W       0.487000
     57 H18         -0.4220     3.9130     3.4620 ha         1 72W       0.131500
     58 H19         -4.0310     5.8970     2.1920 ha         1 72W       0.131500
     59 H20         -1.4000    -3.4780     1.8560 h1         1 72W       0.068200
     60 H21         -2.0320    -4.0900     0.3160 h1         1 72W       0.068200
     61 H22          0.5360     3.2710    -2.6630 hc         1 72W       0.068700
     62 H23         -0.2410     2.3780    -1.3740 hc         1 72W       0.068700
     63 H24          1.2850     3.4680     0.3180 hc         1 72W       0.039700
     64 H25          2.0570     4.3860    -0.9950 hc         1 72W       0.039700
     65 H26          0.3440     4.6630    -0.6010 hc         1 72W       0.039700
@<TRIPOS>BOND
     1     1     4 1   
     2     1    11 1   
     3     1    25 1   
     4     1    40 1   
     5     2     9 1   
     6     2    10 ar  
     7     2    20 ar  
     8     3    16 1   
     9     3    18 2   
    10     3    41 1   
    11     4     5 1   
    12     4    30 1   
    13     4    42 1   
    14     5    13 1   
    15     5    19 1   
    16     5    43 1   
    17     6    10 ar  
    18     6    22 ar  
    19     6    32 1   
    20     7    15 ar  
    21     7    23 ar  
    22     7    44 1   
    23     8    21 1   
    24     8    28 ar  
    25     8    29 ar  
    26     9    24 2   
    27     9    26 1   
    28    10    31 1   
    29    11    16 1   
    30    11    19 1   
    31    11    45 1   
    32    12    15 ar  
    33    12    16 1   
    34    12    17 ar  
    35    13    27 2   
    36    13    46 1   
    37    14    17 ar  
    38    14    23 ar  
    39    14    38 1   
    40    17    18 1   
    41    20    21 ar  
    42    20    47 1   
    43    21    22 ar  
    44    22    48 1   
    45    25    49 1   
    46    26    37 1   
    47    26    50 1   
    48    27    37 1   
    49    27    51 1   
    50    28    34 ar  
    51    28    52 1   
    52    29    35 ar  
    53    29    53 1   
    54    30    54 1   
    55    31    55 1   
    56    32    56 1   
    57    33    34 ar  
    58    33    35 ar  
    59    33    36 1   
    60    34    57 1   
    61    35    58 1   
    62    37    59 1   
    63    37    60 1   
    64    38    39 1   
    65    38    61 1   
    66    38    62 1   
    67    39    63 1   
    68    39    64 1   
    69    39    65 1   
@<TRIPOS>SUBSTRUCTURE
     1 72W         1 TEMP              0 ****  ****    0 ROOT
