@<TRIPOS>MOLECULE
72X
   81    83     1     0     0
SMALL
No Charge or Current Charge


@<TRIPOS>ATOM
      1 C1           2.2420    -0.1160     1.1860 c3         1 72X       0.241300
      2 O2           1.8050    -0.7110     2.4190 oh         1 72X      -0.661000
      3 C3           3.4890     0.7730     1.4460 ca         1 72X      -0.064300
      4 C4           3.9640     1.0430     2.7550 ca         1 72X      -0.084000
      5 C5           4.1800     1.3540     0.3550 ca         1 72X      -0.105000
      6 C6           5.0920     1.8560     2.9600 ca         1 72X      -0.109000
      7 C7           5.3060     2.1640     0.5640 ca         1 72X       0.117000
      8 C8           5.7660     2.4170     1.8640 ca         1 72X      -0.103000
      9 C15          2.6360    -1.3010     0.2440 c3         1 72X      -0.105400
     10 C18          3.8630    -2.1380     0.7000 c3         1 72X      -0.074400
     11 C21          4.1810    -3.3080    -0.2560 c3         1 72X      -0.081400
     12 C24          5.4030    -4.1330     0.1920 c3         1 72X       0.159600
     13 O27          5.5980    -5.1840    -0.7690 os         1 72X      -0.454000
     14 C28          6.7120    -6.0470    -0.4870 c3         1 72X       0.147900
     15 C32         -4.6980     0.3860    -2.0360 c3         1 72X       0.120700
     16 C33         -4.9690     1.1510    -3.3610 c3         1 72X       0.143800
     17 C34         -5.9100     0.4650    -1.0700 c3         1 72X      -0.090400
     18 N35         -3.8490     1.0050    -4.3170 n7         1 72X      -0.846400
     19 C36         -5.7650    -0.2790     0.2960 c6         1 72X      -0.053700
     20 C37         -6.9900     0.0050     1.2110 c6         1 72X      -0.074400
     21 C38         -6.8600    -0.7090     2.5790 c6         1 72X      -0.071900
     22 C39         -6.6620    -2.2330     2.3980 c6         1 72X      -0.075400
     23 C40         -5.5720    -1.8140     0.1230 c6         1 72X      -0.074400
     24 C41         -5.4440    -2.5300     1.4910 c6         1 72X      -0.071900
     25 N42         -3.4810     0.8830    -1.3730 ns         1 72X      -0.531900
     26 O44         -2.2400    -1.0140    -1.4980 o          1 72X      -0.639100
     27 N45         -1.3370     0.7930    -0.3920 n          1 72X      -0.439800
     28 C46         -0.3210     2.8570     0.7500 c6         1 72X      -0.099400
     29 C47          0.6650     1.9450     1.4970 c6         1 72X      -0.068400
     30 C48          1.0780     0.7710     0.5730 c6         1 72X      -0.104700
     31 C49         -0.1910    -0.0240     0.1320 c6         1 72X       0.106000
     32 C50         -1.5870     2.0980     0.2980 c6         1 72X       0.107000
     33 C51         -3.9690     1.7990    -5.5530 c3         1 72X       0.144100
     34 Cl1          6.1440     2.8680    -0.8130 cl         1 72X      -0.209000
     35 HO2          1.2180    -1.4590     2.1830 ho         1 72X       0.450000
     36 H4           3.4640     0.6300     3.6270 ha         1 72X       0.136000
     37 H5           3.8470     1.1800    -0.6640 ha         1 72X       0.128000
     38 H6           5.4430     2.0520     3.9710 ha         1 72X       0.118000
     39 H8           6.6390     3.0460     2.0210 ha         1 72X       0.129000
     40 H15          1.7860    -1.9860     0.1390 hc         1 72X       0.052700
     41 H15A         2.8330    -0.9140    -0.7630 hc         1 72X       0.052700
     42 H18          4.7480    -1.4930     0.7690 hc         1 72X       0.047200
     43 H18A         3.6830    -2.5380     1.7060 hc         1 72X       0.047200
     44 H21          3.3080    -3.9700    -0.3230 hc         1 72X       0.053700
     45 H21A         4.3660    -2.9130    -1.2620 hc         1 72X       0.053700
     46 H24          6.2870    -3.4840     0.2420 h1         1 72X       0.019700
     47 H24A         5.2190    -4.5510     1.1910 h1         1 72X       0.019700
     48 H28          6.7990    -6.8220    -1.2590 h1         1 72X       0.027367
     49 H28A         7.6510    -5.4780    -0.4650 h1         1 72X       0.027367
     50 H28B         6.5840    -6.5440     0.4840 h1         1 72X       0.027367
     51 H32         -4.5540    -0.6690    -2.3050 h1         1 72X       0.101700
     52 H33         -5.8960     0.7700    -3.8110 h1         1 72X       0.028200
     53 H33A        -5.1280     2.2120    -3.1250 h1         1 72X       0.028200
     54 H34         -6.1160     1.5260    -0.8780 hc         1 72X       0.042200
     55 H34A        -6.7930     0.0810    -1.5970 hc         1 72X       0.042200
     56 HN35        -2.9890     1.2910    -3.8300 hn         1 72X       0.414000
     57 H36         -4.8740     0.1310     0.7920 hc         1 72X       0.041700
     58 H37         -7.0940     1.0870     1.3740 hc         1 72X       0.041950
     59 H37A        -7.9130    -0.3230     0.7120 hc         1 72X       0.041950
     60 H38         -6.0120    -0.2880     3.1370 hc         1 72X       0.037700
     61 H38A        -7.7570    -0.5200     3.1850 hc         1 72X       0.037700
     62 H39         -6.5230    -2.7100     3.3770 hc         1 72X       0.038200
     63 H39A        -7.5670    -2.6750     1.9590 hc         1 72X       0.038200
     64 H40         -6.4190    -2.2360    -0.4350 hc         1 72X       0.041950
     65 H40A        -4.6730    -2.0240    -0.4700 hc         1 72X       0.041950
     66 H41         -4.5210    -2.2050     1.9920 hc         1 72X       0.037700
     67 H41A        -5.3500    -3.6130     1.3370 hc         1 72X       0.037700
     68 HN42        -3.4830     1.8310    -1.0250 hn         1 72X       0.304500
     69 H46         -0.6080     3.7030     1.3880 hc         1 72X       0.047700
     70 H46A         0.1750     3.2900    -0.1300 hc         1 72X       0.047700
     71 H47          1.5390     2.5370     1.7980 hc         1 72X       0.053200
     72 H47A         0.2040     1.5670     2.4200 hc         1 72X       0.053200
     73 H48          1.4950     1.2100    -0.3430 hc         1 72X       0.060700
     74 H49         -0.5610    -0.6120     0.9840 h1         1 72X       0.059700
     75 H49A         0.1040    -0.7410    -0.6470 h1         1 72X       0.059700
     76 H50         -2.1540     2.7710    -0.3610 h1         1 72X       0.044200
     77 H50A        -2.2140     1.9010     1.1790 h1         1 72X       0.044200
     78 H51         -3.1030     1.6280    -6.2060 h1         1 72X       0.027700
     79 H51A        -4.8750     1.5210    -6.1090 h1         1 72X       0.027700
     80 H51B        -4.0190     2.8720    -5.3260 h1         1 72X       0.027700
     81 C43         -2.3540     0.1400    -1.1180 c          1 72X       0.667100
@<TRIPOS>BOND
     1     1     2 1   
     2     1     3 1   
     3     1     9 1   
     4     1    30 1   
     5     2    35 1   
     6     3     4 ar  
     7     3     5 ar  
     8     4     6 ar  
     9     4    36 1   
    10     5     7 ar  
    11     5    37 1   
    12     6     8 ar  
    13     6    38 1   
    14     7     8 ar  
    15     7    34 1   
    16     8    39 1   
    17     9    10 1   
    18     9    40 1   
    19     9    41 1   
    20    10    11 1   
    21    10    42 1   
    22    10    43 1   
    23    11    12 1   
    24    11    44 1   
    25    11    45 1   
    26    12    13 1   
    27    12    46 1   
    28    12    47 1   
    29    13    14 1   
    30    14    48 1   
    31    14    49 1   
    32    14    50 1   
    33    15    16 1   
    34    15    17 1   
    35    15    25 1   
    36    15    51 1   
    37    16    18 1   
    38    16    52 1   
    39    16    53 1   
    40    17    19 1   
    41    17    54 1   
    42    17    55 1   
    43    18    33 1   
    44    18    56 1   
    45    19    20 1   
    46    19    23 1   
    47    19    57 1   
    48    20    21 1   
    49    20    58 1   
    50    20    59 1   
    51    21    22 1   
    52    21    60 1   
    53    21    61 1   
    54    22    24 1   
    55    22    62 1   
    56    22    63 1   
    57    23    24 1   
    58    23    64 1   
    59    23    65 1   
    60    24    66 1   
    61    24    67 1   
    62    25    68 1   
    63    25    81 1   
    64    26    81 2   
    65    27    31 1   
    66    27    32 1   
    67    27    81 1   
    68    28    29 1   
    69    28    32 1   
    70    28    69 1   
    71    28    70 1   
    72    29    30 1   
    73    29    71 1   
    74    29    72 1   
    75    30    31 1   
    76    30    73 1   
    77    31    74 1   
    78    31    75 1   
    79    32    76 1   
    80    32    77 1   
    81    33    78 1   
    82    33    79 1   
    83    33    80 1   
@<TRIPOS>SUBSTRUCTURE
     1 72X         1 TEMP              0 ****  ****    0 ROOT
