@<TRIPOS>MOLECULE
72X
   81    83     1     0     0
SMALL
abcg2


@<TRIPOS>ATOM
      1 C1           2.2630    -0.2330     1.2350 c3         1 72X       0.241300
      2 O2           2.2520    -0.7200     2.5610 oh         1 72X      -0.661000
      3 C3           3.3770     0.8010     1.1480 ca         1 72X      -0.064300
      4 C4           4.1720     1.1290     2.2410 ca         1 72X      -0.084000
      5 C5           3.6160     1.4400    -0.0680 ca         1 72X      -0.105000
      6 C6           5.1830     2.0740     2.1200 ca         1 72X      -0.109000
      7 C7           4.6270     2.3780    -0.1700 ca         1 72X       0.117000
      8 C8           5.4240     2.7120     0.9140 ca         1 72X      -0.103000
      9 C15          2.5650    -1.3790     0.2510 c3         1 72X      -0.105400
     10 C18          3.9120    -2.0600     0.4670 c3         1 72X      -0.074400
     11 C21          4.1360    -3.2020    -0.5180 c3         1 72X      -0.081400
     12 C24          5.4720    -3.8780    -0.2880 c3         1 72X       0.159600
     13 O27          5.6430    -4.9220    -1.2160 os         1 72X      -0.454000
     14 C28          6.8670    -5.5890    -1.0550 c3         1 72X       0.147900
     15 C32         -4.2430     0.2020    -1.8190 c3         1 72X       0.120700
     16 C33         -4.0450     0.9250    -3.1490 c3         1 72X       0.143800
     17 C34         -5.6390     0.5030    -1.2680 c3         1 72X      -0.090400
     18 N35         -2.7920     0.5800    -3.7830 n7         1 72X      -0.846400
     19 C36         -5.9350    -0.0210     0.1340 c6         1 72X      -0.053700
     20 C37         -7.3530     0.3800     0.5470 c6         1 72X      -0.074400
     21 C38         -7.7090    -0.1070     1.9470 c6         1 72X      -0.071900
     22 C39         -7.5220    -1.6160     2.0680 c6         1 72X      -0.075400
     23 C40         -5.7570    -1.5330     0.2640 c6         1 72X      -0.074400
     24 C41         -6.1090    -2.0240     1.6660 c6         1 72X      -0.071900
     25 N42         -3.2160     0.5820    -0.8680 ns         1 72X      -0.531900
     26 O44         -2.0540    -1.3570    -0.9410 o          1 72X      -0.639100
     27 N45         -1.5130     0.1620     0.6530 n          1 72X      -0.439800
     28 C46         -0.6990     2.3180     1.4570 c6         1 72X      -0.099400
     29 C47          0.6410     1.6710     1.7890 c6         1 72X      -0.068400
     30 C48          0.9100     0.4530     0.9020 c6         1 72X      -0.104700
     31 C49         -0.2780    -0.5170     0.9890 c6         1 72X       0.106000
     32 C50         -1.8120     1.2860     1.5180 c6         1 72X       0.107000
     33 C51         -2.5640     1.3340    -4.9980 c3         1 72X       0.144100
     34 CL1          4.9020     3.1580    -1.6970 cl         1 72X      -0.209000
     35 HO2          1.7340    -1.5310     2.5890 ho         1 72X       0.450000
     36 H4           4.0130     0.6510     3.1960 ha         1 72X       0.136000
     37 H5           3.0180     1.2120    -0.9400 ha         1 72X       0.128000
     38 H6           5.7930     2.3190     2.9800 ha         1 72X       0.118000
     39 H8           6.2110     3.4470     0.8200 ha         1 72X       0.129000
     40 H15          1.7780    -2.1350     0.3300 hc         1 72X       0.052700
     41 H15A         2.5090    -0.9960    -0.7720 hc         1 72X       0.052700
     42 H18          4.7210    -1.3320     0.3660 hc         1 72X       0.047200
     43 H18A         3.9710    -2.4470     1.4890 hc         1 72X       0.047200
     44 H21          3.3320    -3.9380    -0.4200 hc         1 72X       0.053700
     45 H21A         4.0920    -2.8170    -1.5420 hc         1 72X       0.053700
     46 H24          6.2850    -3.1420    -0.3830 h1         1 72X       0.019700
     47 H24A         5.5210    -4.2640     0.7420 h1         1 72X       0.019700
     48 H28          6.9280    -6.3750    -1.8080 h1         1 72X       0.027367
     49 H28A         7.7240    -4.9170    -1.1880 h1         1 72X       0.027367
     50 H28B         6.9580    -6.0520    -0.0650 h1         1 72X       0.027367
     51 H32         -4.1380    -0.8680    -1.9930 h1         1 72X       0.101700
     52 H33         -4.8630     0.6460    -3.8210 h1         1 72X       0.028200
     53 H33A        -4.1500     2.0110    -2.9770 h1         1 72X       0.028200
     54 H34         -5.7950     1.5890    -1.2740 hc         1 72X       0.042200
     55 H34A        -6.3710     0.0890    -1.9700 hc         1 72X       0.042200
     56 HN35        -2.0370     0.7660    -3.1360 hn         1 72X       0.414000
     57 H36         -5.2380     0.4580     0.8340 hc         1 72X       0.041700
     58 H37         -7.4610     1.4670     0.4880 hc         1 72X       0.041950
     59 H37A        -8.0640    -0.0410    -0.1740 hc         1 72X       0.041950
     60 H38         -7.0710     0.3960     2.6810 hc         1 72X       0.037700
     61 H38A        -8.7380     0.1690     2.1910 hc         1 72X       0.037700
     62 H39         -7.7370    -1.9460     3.0880 hc         1 72X       0.038200
     63 H39A        -8.2440    -2.1220     1.4190 hc         1 72X       0.038200
     64 H40         -6.4030    -2.0320    -0.4690 hc         1 72X       0.041950
     65 H40A        -4.7320    -1.8230     0.0190 hc         1 72X       0.041950
     66 H41         -5.3960    -1.6020     2.3840 hc         1 72X       0.037700
     67 H41A        -5.9960    -3.1100     1.7220 hc         1 72X       0.037700
     68 HN42        -3.2610     1.5260    -0.5250 hn         1 72X       0.304500
     69 H46         -0.9110     3.1270     2.1600 hc         1 72X       0.047700
     70 H46A        -0.6670     2.7590     0.4560 hc         1 72X       0.047700
     71 H47          1.4410     2.4060     1.6840 hc         1 72X       0.053200
     72 H47A         0.6390     1.3590     2.8380 hc         1 72X       0.053200
     73 H48          0.9620     0.7910    -0.1400 hc         1 72X       0.060700
     74 H49         -0.3630    -0.9200     2.0060 h1         1 72X       0.059700
     75 H49A        -0.1600    -1.3590     0.3140 h1         1 72X       0.059700
     76 H50         -2.7770     1.7280     1.2800 h1         1 72X       0.044200
     77 H50A        -1.9030     0.9110     2.5440 h1         1 72X       0.044200
     78 H51         -1.5800     1.0980    -5.4020 h1         1 72X       0.027700
     79 H51A        -3.3040     1.0590    -5.7530 h1         1 72X       0.027700
     80 H51B        -2.6230     2.4250    -4.8680 h1         1 72X       0.027700
     81 C43         -2.2530    -0.2640    -0.4140 c          1 72X       0.667100
@<TRIPOS>BOND
     1     1     2 1   
     2     1     3 1   
     3     1     9 1   
     4     1    30 1   
     5     2    35 1   
     6     3     4 ar  
     7     3     5 ar  
     8     4     6 ar  
     9     4    36 1   
    10     5     7 ar  
    11     5    37 1   
    12     6     8 ar  
    13     6    38 1   
    14     7     8 ar  
    15     7    34 1   
    16     8    39 1   
    17     9    10 1   
    18     9    40 1   
    19     9    41 1   
    20    10    11 1   
    21    10    42 1   
    22    10    43 1   
    23    11    12 1   
    24    11    44 1   
    25    11    45 1   
    26    12    13 1   
    27    12    46 1   
    28    12    47 1   
    29    13    14 1   
    30    14    48 1   
    31    14    49 1   
    32    14    50 1   
    33    15    16 1   
    34    15    17 1   
    35    15    25 1   
    36    15    51 1   
    37    16    18 1   
    38    16    52 1   
    39    16    53 1   
    40    17    19 1   
    41    17    54 1   
    42    17    55 1   
    43    18    33 1   
    44    18    56 1   
    45    19    20 1   
    46    19    23 1   
    47    19    57 1   
    48    20    21 1   
    49    20    58 1   
    50    20    59 1   
    51    21    22 1   
    52    21    60 1   
    53    21    61 1   
    54    22    24 1   
    55    22    62 1   
    56    22    63 1   
    57    23    24 1   
    58    23    64 1   
    59    23    65 1   
    60    24    66 1   
    61    24    67 1   
    62    25    68 1   
    63    25    81 1   
    64    26    81 2   
    65    27    31 1   
    66    27    32 1   
    67    27    81 1   
    68    28    29 1   
    69    28    32 1   
    70    28    69 1   
    71    28    70 1   
    72    29    30 1   
    73    29    71 1   
    74    29    72 1   
    75    30    31 1   
    76    30    73 1   
    77    31    74 1   
    78    31    75 1   
    79    32    76 1   
    80    32    77 1   
    81    33    78 1   
    82    33    79 1   
    83    33    80 1   
@<TRIPOS>SUBSTRUCTURE
     1 72X         1 TEMP              0 ****  ****    0 ROOT
