@<TRIPOS>MOLECULE
72Y
   34    36     1     0     0
SMALL
abcg2


@<TRIPOS>ATOM
      1 C4          -1.3140    11.1390    24.4560 ca         1 72Y       0.392900
      2 C7           1.8840     9.8860    26.6900 cc         1 72Y      -0.184200
      3 C8           0.6140    10.2210    26.1180 ca         1 72Y      -0.235800
      4 N2          -1.6860    10.5570    25.6250 nb         1 72Y      -0.252000
      5 C9           0.8680    10.8410    24.8640 ca         1 72Y       0.174500
      6 C11          2.8280    10.3020    25.7980 cd         1 72Y      -0.162100
      7 C13          3.9850    12.4290    23.9490 ca         1 72Y       0.308300
      8 C14          3.6650    13.6230    24.6140 ca         1 72Y      -0.077300
      9 C15          4.7470    14.4160    24.9980 ca         1 72Y       0.141000
     10 C1          -0.7350    10.1180    26.4160 ca         1 72Y       0.304000
     11 CL3         -1.2350     9.3660    27.9180 cl         1 72Y      -0.169000
     12 N5          -0.0580    11.2980    24.0260 nb         1 72Y      -0.272000
     13 N6          -2.3210    11.6300    23.6820 nv         1 72Y      -1.045900
     14 N10          2.2170    10.8830    24.6880 na         1 72Y      -0.201400
     15 C16          6.0670    14.0650    24.7160 ca         1 72Y      -0.102300
     16 C17          6.2350    12.8670    24.0290 ca         1 72Y       0.332900
     17 N18          5.2370    12.0660    23.6630 nb         1 72Y      -0.657000
     18 CL1          4.4530    15.9010    25.8740 cl         1 72Y      -0.196000
     19 C20          7.2440    14.8990    25.1170 c3         1 72Y      -0.043800
     20 C21          2.2480    14.0140    24.9130 c3         1 72Y      -0.055800
     21 H1           2.0660     9.4020    27.6350 ha         1 72Y       0.216000
     22 H2           3.9020    10.2410    25.8460 h4         1 72Y       0.227000
     23 H3           2.1580    11.9120    22.9080 h1         1 72Y       0.087200
     24 H4           3.3870    10.6450    22.9680 h1         1 72Y       0.087200
     25 H5          -2.1030    11.8370    22.7210 hn         1 72Y       0.490500
     26 H6          -3.2510    11.2920    23.8700 hn         1 72Y       0.490500
     27 H7           7.2380    12.5410    23.7740 h4         1 72Y       0.025100
     28 H8           7.1760    15.9040    24.6950 hc         1 72Y       0.053700
     29 H9           7.2960    15.0070    26.2020 hc         1 72Y       0.053700
     30 H10          8.1680    14.4380    24.7700 hc         1 72Y       0.053700
     31 H11          1.9750    13.7300    25.9330 hc         1 72Y       0.060700
     32 H12          2.1170    15.0910    24.8270 hc         1 72Y       0.060700
     33 H13          1.5470    13.5310    24.2370 hc         1 72Y       0.060700
     34 C12          2.9140    11.4450    23.5370 c3         1 72Y       0.031300
@<TRIPOS>BOND
     1     1     4 ar  
     2     1    12 ar  
     3     1    13 1   
     4     2     3 1   
     5     2     6 2   
     6     2    21 1   
     7     3     5 ar  
     8     3    10 ar  
     9     4    10 ar  
    10     5    12 ar  
    11     5    14 1   
    12     6    14 1   
    13     6    22 1   
    14     7     8 ar  
    15     7    17 ar  
    16     7    34 1   
    17     8     9 ar  
    18     8    20 1   
    19     9    15 ar  
    20     9    18 1   
    21    10    11 1   
    22    13    25 1   
    23    13    26 1   
    24    14    34 1   
    25    15    16 ar  
    26    15    19 1   
    27    16    17 ar  
    28    16    27 1   
    29    19    28 1   
    30    19    29 1   
    31    19    30 1   
    32    20    31 1   
    33    20    32 1   
    34    20    33 1   
    35    23    34 1   
    36    24    34 1   
@<TRIPOS>SUBSTRUCTURE
     1 72Y         1 TEMP              0 ****  ****    0 ROOT
