@<TRIPOS>MOLECULE
72Y
   34    36     1     0     0
SMALL
No Charge or Current Charge


@<TRIPOS>ATOM
      1 C4          -1.3950    11.0800    24.4700 ca         1 72Y       0.392900
      2 C7           1.7590     9.8400    26.6880 cc         1 72Y      -0.184200
      3 C8           0.5390    10.2150    26.0360 ca         1 72Y      -0.235800
      4 N2          -1.7900    10.5070    25.6220 nb         1 72Y      -0.252000
      5 C9           0.8410    10.8140    24.8390 ca         1 72Y       0.174500
      6 C11          2.7910    10.2320    25.8490 cd         1 72Y      -0.162100
      7 C13          4.0170    12.4550    23.9630 ca         1 72Y       0.308300
      8 C14          3.7230    13.6720    24.6340 ca         1 72Y      -0.077300
      9 C15          4.8100    14.4980    25.0080 ca         1 72Y       0.141000
     10 C1          -0.8010    10.0650    26.4240 ca         1 72Y       0.304000
     11 Cl3         -1.2510     9.3070    27.9460 cl         1 72Y      -0.169000
     12 N5          -0.1370    11.2610    24.0250 nb         1 72Y      -0.272000
     13 N6          -2.3820    11.5260    23.6550 nv         1 72Y      -1.045900
     14 N10          2.2270    10.8400    24.7030 na         1 72Y      -0.201400
     15 C16          6.1230    14.1020    24.6850 ca         1 72Y      -0.102300
     16 C17          6.3010    12.8870    24.0040 ca         1 72Y       0.332900
     17 N18          5.2800    12.0770    23.6540 nb         1 72Y      -0.657000
     18 Cl1          4.5480    16.0110    25.8900 cl         1 72Y      -0.196000
     19 C20          7.3330    14.9530    25.0590 c3         1 72Y      -0.043800
     20 C21          2.2790    14.0730    24.9670 c3         1 72Y      -0.055800
     21 H1           1.8760     9.3440    27.6520 ha         1 72Y       0.216000
     22 H2           3.8660    10.1310    25.9810 h4         1 72Y       0.227000
     23 H3           2.2120    11.9570    22.9050 h1         1 72Y       0.087200
     24 H4           3.3850    10.6470    22.9690 h1         1 72Y       0.087200
     25 H5          -2.1460    11.7620    22.6940 hn         1 72Y       0.490500
     26 H6          -3.3370    11.2240    23.8320 hn         1 72Y       0.490500
     27 H7           7.2980    12.5410    23.7340 h4         1 72Y       0.025100
     28 H8           7.2710    15.9490    24.6040 hc         1 72Y       0.053700
     29 H9           7.4060    15.0810    26.1450 hc         1 72Y       0.053700
     30 H10          8.2710    14.4970    24.7200 hc         1 72Y       0.053700
     31 H11          1.9770    13.6710    25.9410 hc         1 72Y       0.060700
     32 H12          2.1420    15.1590    24.9970 hc         1 72Y       0.060700
     33 H13          1.5650    13.7080    24.2210 hc         1 72Y       0.060700
     34 C12          2.9330    11.4540    23.5590 c3         1 72Y       0.031300
@<TRIPOS>BOND
     1     1     4 ar  
     2     1    12 ar  
     3     1    13 1   
     4     2     3 1   
     5     2     6 2   
     6     2    21 1   
     7     3     5 ar  
     8     3    10 ar  
     9     4    10 ar  
    10     5    12 ar  
    11     5    14 1   
    12     6    14 1   
    13     6    22 1   
    14     7     8 ar  
    15     7    17 ar  
    16     7    34 1   
    17     8     9 ar  
    18     8    20 1   
    19     9    15 ar  
    20     9    18 1   
    21    10    11 1   
    22    13    25 1   
    23    13    26 1   
    24    14    34 1   
    25    15    16 ar  
    26    15    19 1   
    27    16    17 ar  
    28    16    27 1   
    29    19    28 1   
    30    19    29 1   
    31    19    30 1   
    32    20    31 1   
    33    20    32 1   
    34    20    33 1   
    35    23    34 1   
    36    24    34 1   
@<TRIPOS>SUBSTRUCTURE
     1 72Y         1 TEMP              0 ****  ****    0 ROOT
