@<TRIPOS>MOLECULE
731
   47    50     1     0     0
SMALL
No Charge or Current Charge


@<TRIPOS>ATOM
      1 O14          0.1610    -2.3830    -0.8500 o          1 731      -0.597100
      2 C15         -1.9420     0.6100    -0.4110 c6         1 731       0.090500
      3 C16         -2.5390    -1.8490    -0.7280 c6         1 731       0.090500
      4 C17         -3.4260     0.9460    -0.7280 c6         1 731       0.170300
      5 C18         -3.9860    -1.3980    -1.0640 c6         1 731       0.170300
      6 C19         -5.6880     0.1420    -0.0070 ca         1 731       0.291000
      7 C20          4.9110     2.8730     0.7740 c3         1 731      -0.129400
      8 C22         -5.9540     1.0000     1.0760 ca         1 731      -0.159500
      9 C23         -6.7740    -0.4020    -0.7260 ca         1 731      -0.159500
     10 C24         -8.0970    -0.0940    -0.3650 ca         1 731      -0.082500
     11 C25         -7.2760     1.3110     1.4410 ca         1 731      -0.082500
     12 C26         -8.3480     0.7630     0.7190 ca         1 731      -0.142000
     13 C1           0.9950    -0.2000    -0.3190 cc         1 731       0.196500
     14 C12          6.9430    -0.0500     0.2920 cc         1 731       0.445700
     15 C2           4.5430     0.4030     0.1660 cd         1 731      -0.191000
     16 C3           3.1050     0.4330     0.0330 cd         1 731      -0.078000
     17 C4           2.3390    -0.6400    -0.2890 cc         1 731      -0.158000
     18 C7           5.3620     1.4650     0.4910 cc         1 731       0.312300
     19 C8          -0.1050    -1.2000    -0.6460 c          1 731       0.539600
     20 N11         -1.4740    -0.7860    -0.7160 n          1 731      -0.391800
     21 N13         -4.3460    -0.1510    -0.3510 nh         1 731      -0.787400
     22 N5           2.2170     1.4960     0.1940 na         1 731       0.016800
     23 N6           6.6540     1.2140     0.5580 nd         1 731      -0.648000
     24 N9           0.8970     1.0980    -0.0240 nd         1 731      -0.496800
     25 S10          5.5310    -1.0350    -0.0710 ss         1 731       0.003600
     26 H1          -1.3450     1.3290    -0.9860 h1         1 731       0.069950
     27 H2          -1.7670     0.8060     0.6560 h1         1 731       0.069950
     28 H3          -2.5550    -2.3140     0.2670 h1         1 731       0.069950
     29 H4          -2.2630    -2.6400    -1.4400 h1         1 731       0.069950
     30 H5          -3.6920     1.8810    -0.2140 h1         1 731       0.046950
     31 H6          -3.5170     1.1400    -1.8070 h1         1 731       0.046950
     32 H7          -4.0680    -1.2440    -2.1500 h1         1 731       0.046950
     33 H8          -4.6720    -2.2150    -0.7940 h1         1 731       0.046950
     34 H9           4.2340     2.9010     1.6350 hc         1 731       0.053700
     35 H10          5.7600     3.5270     1.0080 hc         1 731       0.053700
     36 H11          4.4020     3.3030    -0.0960 hc         1 731       0.053700
     37 H12          8.5620    -1.0470     1.2820 hc         1 731       0.061700
     38 H13          8.4320    -1.4070    -0.4510 hc         1 731       0.061700
     39 H14          9.0740     0.1580     0.0830 hc         1 731       0.061700
     40 H15         -5.1300     1.4210     1.6450 ha         1 731       0.112000
     41 H16         -6.6000    -1.0560    -1.5750 ha         1 731       0.112000
     42 H17         -8.9280    -0.5160    -0.9270 ha         1 731       0.109000
     43 H18         -7.4670     1.9730     2.2830 ha         1 731       0.109000
     44 H19         -9.3720     1.0020     0.9990 ha         1 731       0.113000
     45 H20          2.6710    -1.6530    -0.4900 ha         1 731       0.164000
     46 H21          2.4490     2.4560     0.4400 hn         1 731       0.378000
     47 C21          8.3300    -0.6180     0.3010 c3         1 731      -0.133400
@<TRIPOS>BOND
     1     1    19 2   
     2     2     4 1   
     3     2    20 1   
     4     2    26 1   
     5     2    27 1   
     6     3     5 1   
     7     3    20 1   
     8     3    28 1   
     9     3    29 1   
    10     4    21 1   
    11     4    30 1   
    12     4    31 1   
    13     5    21 1   
    14     5    32 1   
    15     5    33 1   
    16     6     8 ar  
    17     6     9 ar  
    18     6    21 1   
    19     7    18 1   
    20     7    34 1   
    21     7    35 1   
    22     7    36 1   
    23     8    11 ar  
    24     8    40 1   
    25     9    10 ar  
    26     9    41 1   
    27    10    12 ar  
    28    10    42 1   
    29    11    12 ar  
    30    11    43 1   
    31    12    44 1   
    32    13    17 1   
    33    13    19 1   
    34    13    24 2   
    35    14    23 2   
    36    14    25 1   
    37    14    47 1   
    38    15    16 1   
    39    15    18 2   
    40    15    25 1   
    41    16    17 2   
    42    16    22 1   
    43    17    45 1   
    44    18    23 1   
    45    19    20 1   
    46    22    24 1   
    47    22    46 1   
    48    37    47 1   
    49    38    47 1   
    50    39    47 1   
@<TRIPOS>SUBSTRUCTURE
     1 731         1 TEMP              0 ****  ****    0 ROOT
