@<TRIPOS>MOLECULE
731
   47    50     1     0     0
SMALL
abcg2


@<TRIPOS>ATOM
      1 O14         -0.2730    -2.7960     0.1010 o          1 731      -0.597100
      2 C15         -1.8990     0.1280     1.4350 c6         1 731       0.090500
      3 C16         -2.7420    -2.0900     1.0870 c6         1 731       0.090500
      4 C17         -2.8860     0.6540     0.4070 c6         1 731       0.170300
      5 C18         -3.7300    -1.5750     0.0530 c6         1 731       0.170300
      6 C19         -5.1870     0.3420    -0.3230 ca         1 731       0.291000
      7 C20          4.1700     2.8520     0.5290 c3         1 731      -0.129400
      8 C22         -5.6470     1.6240     0.0170 ca         1 731      -0.159500
      9 C23         -5.9080    -0.3710    -1.2870 ca         1 731      -0.159500
     10 C24         -7.0440     0.1720    -1.8750 ca         1 731      -0.082500
     11 C25         -6.7720     2.1610    -0.5850 ca         1 731      -0.082500
     12 C26         -7.4850     1.4410    -1.5370 ca         1 731      -0.142000
     13 C1           0.8300    -0.8620     0.7580 cc         1 731       0.196500
     14 C12          6.3770     0.4790    -1.0370 cc         1 731       0.445700
     15 C2           4.1450     0.3730    -0.0790 cd         1 731      -0.191000
     16 C3           2.8370    -0.0310     0.3920 cd         1 731      -0.078000
     17 C4           1.9050    -0.8920    -0.1470 cc         1 731      -0.158000
     18 C7           4.7530     1.5970    -0.0300 cc         1 731       0.312300
     19 C8          -0.3900    -1.7010     0.6370 c          1 731       0.539600
     20 N11         -1.5580    -1.2530     1.1420 n          1 731      -0.391800
     21 N13         -4.0680    -0.1910     0.3210 nh         1 731      -0.787400
     22 N5           2.2910     0.4240     1.5430 na         1 731       0.016800
     23 N6           6.0080     1.6280    -0.5710 nd         1 731      -0.648000
     24 N9           1.0890    -0.0610     1.7800 nd         1 731      -0.496800
     25 S10          5.1970    -0.7650    -0.8380 ss         1 731       0.003600
     26 H1          -1.0180     0.7600     1.4360 h1         1 731       0.069950
     27 H2          -2.3400     0.1760     2.4340 h1         1 731       0.069950
     28 H3          -3.2130    -2.0800     2.0740 h1         1 731       0.069950
     29 H4          -2.4680    -3.1150     0.8550 h1         1 731       0.069950
     30 H5          -3.1550     1.6650     0.7030 h1         1 731       0.046950
     31 H6          -2.3830     0.7240    -0.5690 h1         1 731       0.046950
     32 H7          -3.3110    -1.7140    -0.9550 h1         1 731       0.046950
     33 H8          -4.6300    -2.1880     0.1170 h1         1 731       0.046950
     34 H9           4.4520     2.9930     1.5750 hc         1 731       0.053700
     35 H10          4.5400     3.7140    -0.0240 hc         1 731       0.053700
     36 H11          3.0820     2.8580     0.4720 hc         1 731       0.053700
     37 H12          8.2250    -0.5890    -1.1930 hc         1 731       0.061700
     38 H13          7.5430    -0.0930    -2.7360 hc         1 731       0.061700
     39 H14          8.2910     1.1110    -1.6800 hc         1 731       0.061700
     40 H15         -5.1370     2.2030     0.7750 ha         1 731       0.112000
     41 H16         -5.5920    -1.3560    -1.6010 ha         1 731       0.112000
     42 H17         -7.5770    -0.4090    -2.6170 ha         1 731       0.109000
     43 H18         -7.0980     3.1520    -0.2960 ha         1 731       0.109000
     44 H19         -8.3670     1.8620    -2.0010 ha         1 731       0.113000
     45 H20          1.9780    -1.4420    -1.0700 ha         1 731       0.164000
     46 H21          2.7260     1.0240     2.2270 hn         1 731       0.378000
     47 C21          7.6820     0.2100    -1.6980 c3         1 731      -0.133400
@<TRIPOS>BOND
     1     1    19 2   
     2     2     4 1   
     3     2    20 1   
     4     2    26 1   
     5     2    27 1   
     6     3     5 1   
     7     3    20 1   
     8     3    28 1   
     9     3    29 1   
    10     4    21 1   
    11     4    30 1   
    12     4    31 1   
    13     5    21 1   
    14     5    32 1   
    15     5    33 1   
    16     6     8 ar  
    17     6     9 ar  
    18     6    21 1   
    19     7    18 1   
    20     7    34 1   
    21     7    35 1   
    22     7    36 1   
    23     8    11 ar  
    24     8    40 1   
    25     9    10 ar  
    26     9    41 1   
    27    10    12 ar  
    28    10    42 1   
    29    11    12 ar  
    30    11    43 1   
    31    12    44 1   
    32    13    17 1   
    33    13    19 1   
    34    13    24 2   
    35    14    23 2   
    36    14    25 1   
    37    14    47 1   
    38    15    16 1   
    39    15    18 2   
    40    15    25 1   
    41    16    17 2   
    42    16    22 1   
    43    17    45 1   
    44    18    23 1   
    45    19    20 1   
    46    22    24 1   
    47    22    46 1   
    48    37    47 1   
    49    38    47 1   
    50    39    47 1   
@<TRIPOS>SUBSTRUCTURE
     1 731         1 TEMP              0 ****  ****    0 ROOT
