@<TRIPOS>MOLECULE
732
   49    51     1     0     0
SMALL
abcg2


@<TRIPOS>ATOM
      1 C1          -2.8780     0.6300     0.1580 ca         1 732      -0.079000
      2 C2          -3.1280    -0.6790    -0.2600 ca         1 732      -0.124500
      3 C3          -4.4530    -1.0880    -0.4260 ca         1 732      -0.079000
      4 C4          -5.5020    -0.2210    -0.1800 ca         1 732      -0.105000
      5 C5          -5.2280     1.0740     0.2360 ca         1 732       0.127000
      6 C6          -3.9220     1.5060     0.4060 ca         1 732      -0.105000
      7 C7          -2.0470    -1.6120    -0.5220 cc         1 732       0.210500
      8 CL8         -6.5360     2.1640     0.5460 cl         1 732      -0.196000
      9 C9          -2.0250    -2.9370    -0.8540 cd         1 732      -0.182000
     10 C10         -0.6610    -3.2980    -0.9750 cd         1 732      -0.102000
     11 C11          0.0550    -2.1740    -0.7100 cc         1 732       0.069500
     12 O12         -0.7860    -1.1520    -0.4360 os         1 732      -0.240000
     13 C13          1.5040    -1.9470    -0.6950 c          1 732       0.542600
     14 O14          2.2720    -2.8640    -0.9540 o          1 732      -0.591100
     15 N15          1.9100    -0.6960    -0.4180 ns         1 732      -0.474900
     16 C16          3.3050    -0.3680    -0.3070 c3         1 732       0.036700
     17 C17          3.5200     1.1560    -0.3170 c6         1 732      -0.066700
     18 C18          3.9060    -1.0030     0.9520 c          1 732       0.584100
     19 O19          3.2200    -1.3270     1.9090 o          1 732      -0.593100
     20 N20          5.2370    -1.1390     0.9240 ns         1 732      -0.504900
     21 C21          5.9900    -1.6490     2.0460 c3         1 732       0.095300
     22 C22          3.0450     1.7730    -1.6340 c6         1 732      -0.073900
     23 C23          3.3370     3.2690    -1.6850 c6         1 732      -0.074900
     24 C24          2.7220     3.9900    -0.4900 c6         1 732      -0.076400
     25 C25          3.1930     3.3770     0.8230 c6         1 732      -0.074900
     26 C26          2.8970     1.8800     0.8790 c6         1 732      -0.073900
     27 H1          -1.8660     0.9830     0.3010 ha         1 732       0.124500
     28 H3          -4.6800    -2.0930    -0.7550 ha         1 732       0.124500
     29 H4          -6.5220    -0.5530    -0.3140 ha         1 732       0.132500
     30 H6          -3.7130     2.5150     0.7330 ha         1 732       0.132500
     31 H9          -2.8770    -3.5830    -0.9910 ha         1 732       0.146000
     32 H10         -0.2630    -4.2680    -1.2260 ha         1 732       0.160000
     33 HN15         1.2340    -0.0210    -0.0980 hn         1 732       0.333500
     34 H16          3.8270    -0.7730    -1.1810 h1         1 732       0.077700
     35 H17          4.6050     1.3050    -0.2610 hc         1 732       0.052700
     36 H21          5.9200    -0.9920     2.9130 h1         1 732       0.040700
     37 H21A         5.6480    -2.6420     2.3380 h1         1 732       0.040700
     38 H22          3.5270     1.2620    -2.4730 hc         1 732       0.046450
     39 H22A         1.9680     1.6170    -1.7540 hc         1 732       0.046450
     40 H23          4.4200     3.4290    -1.6920 hc         1 732       0.041450
     41 H23A         2.9550     3.6880    -2.6190 hc         1 732       0.041450
     42 H24          2.9650     5.0550    -0.5210 hc         1 732       0.040200
     43 H24A         1.6300     3.9170    -0.5490 hc         1 732       0.040200
     44 H25          4.2720     3.5330     0.9340 hc         1 732       0.041450
     45 H25A         2.7180     3.8780     1.6690 hc         1 732       0.041450
     46 H26          1.8090     1.7420     0.8900 hc         1 732       0.046450
     47 H26A         3.2690     1.4670     1.8190 hc         1 732       0.046450
     48 H221         5.7410    -0.8760     0.0940 hn         1 732       0.314500
     49 H231         7.0340    -1.7180     1.7540 h1         1 732       0.040700
@<TRIPOS>BOND
     1     1     2 ar  
     2     1     6 ar  
     3     1    27 1   
     4     2     3 ar  
     5     2     7 1   
     6     3     4 ar  
     7     3    28 1   
     8     4     5 ar  
     9     4    29 1   
    10     5     6 ar  
    11     5     8 1   
    12     6    30 1   
    13     7     9 2   
    14     7    12 1   
    15     9    10 1   
    16     9    31 1   
    17    10    11 2   
    18    10    32 1   
    19    11    12 1   
    20    11    13 1   
    21    13    14 2   
    22    13    15 1   
    23    15    16 1   
    24    15    33 1   
    25    16    17 1   
    26    16    18 1   
    27    16    34 1   
    28    17    22 1   
    29    17    26 1   
    30    17    35 1   
    31    18    19 2   
    32    18    20 1   
    33    20    21 1   
    34    20    48 1   
    35    21    36 1   
    36    21    37 1   
    37    21    49 1   
    38    22    23 1   
    39    22    38 1   
    40    22    39 1   
    41    23    24 1   
    42    23    40 1   
    43    23    41 1   
    44    24    25 1   
    45    24    42 1   
    46    24    43 1   
    47    25    26 1   
    48    25    44 1   
    49    25    45 1   
    50    26    46 1   
    51    26    47 1   
@<TRIPOS>SUBSTRUCTURE
     1 732         1 TEMP              0 ****  ****    0 ROOT
