@<TRIPOS>MOLECULE
734
   39    42     1     0     0
SMALL
bcc


@<TRIPOS>ATOM
      1 CAA          5.0590    -0.2230     1.7150 ca         1 734      -0.058000
      2 CAB         -1.3540     0.8290     0.8290 ca         1 734       0.118800
      3 CAC         -0.4660    -0.0510     0.2530 ca         1 734      -0.129300
      4 CAD         -0.9700    -1.2160    -0.3560 ca         1 734      -0.048000
      5 CAE         -2.3110    -1.4850    -0.3960 ca         1 734      -0.006600
      6 CAF          1.3190     1.4030    -0.6660 cc         1 734       0.194000
      7 CAG         -3.2480    -0.6020     0.1830 ca         1 734      -0.095300
      8 CAH         -4.6490    -0.7800     0.2060 ca         1 734      -0.072000
      9 CAI         -5.4340     0.1610     0.8100 ca         1 734      -0.239300
     10 CAJ         -4.8280     1.2890     1.3990 ca         1 734       0.426200
     11 CAK          5.8150    -1.1960     1.0730 ca         1 734      -0.296300
     12 CAL         -2.7490     0.5650     0.8000 ca         1 734       0.324600
     13 CAM          1.0120     0.2890     0.2850 c3         1 734       0.263500
     14 CAN          5.1740    -1.9680     0.1200 ca         1 734       0.447200
     15 CAO          3.1680    -0.9050     0.4190 ca         1 734       0.659200
     16 CAP          3.7250    -0.0630     1.3940 ca         1 734      -0.298300
     17 CAQ          1.8550     2.6350    -0.5050 cd         1 734      -0.235300
     18 CAR          1.9360     3.2090    -1.8120 cd         1 734      -0.273300
     19 CAS          1.4410     2.2770    -2.6590 cc         1 734       0.238600
     20 NAT          1.8410    -0.8740     0.0570 nu         1 734      -0.843900
     21 NAU          3.8950    -1.8320    -0.2040 nb         1 734      -0.741000
     22 NAV         -3.5370     1.4840     1.3950 nb         1 734      -0.691000
     23 OAW          1.0630     1.1780    -1.9730 os         1 734      -0.325800
     24 OAX         -0.9270     1.9420     1.4260 oh         1 734      -0.482100
     25 CLAY        -2.8660    -2.9390    -1.1590 cl         1 734      -0.103400
     26 HAA          5.5060     0.4150     2.4650 ha         1 734       0.132000
     27 HAD         -0.2930    -1.9330    -0.7990 ha         1 734       0.156000
     28 HAH         -5.0960    -1.6530    -0.2500 ha         1 734       0.153000
     29 HAI         -6.5090     0.0520     0.8440 ha         1 734       0.147000
     30 HAJ         -5.4390     2.0420     1.8830 h4         1 734       0.024100
     31 HAK          6.8610    -1.3470     1.2980 ha         1 734       0.142000
     32 HAM          1.2260     0.6640     1.2870 h1         1 734       0.092700
     33 HAN          5.7190    -2.7380    -0.4150 h4         1 734       0.015100
     34 HAP          3.1420     0.6960     1.8950 ha         1 734       0.141000
     35 HAQ          2.1540     3.0810     0.4290 ha         1 734       0.160000
     36 HAR          2.3100     4.1840    -2.0790 ha         1 734       0.160000
     37 HAS          1.3010     2.2550    -3.7270 h4         1 734       0.052100
     38 HNAT         1.6880    -1.3530    -0.8190 hn         1 734       0.427800
     39 HOAX        -1.7120     2.3980     1.7740 ho         1 734       0.463000
@<TRIPOS>BOND
     1     1    11 ar  
     2     1    16 ar  
     3     1    26 1   
     4     2     3 ar  
     5     2    12 ar  
     6     2    24 1   
     7     3     4 ar  
     8     3    13 1   
     9     4     5 ar  
    10     4    27 1   
    11     5     7 ar  
    12     5    25 1   
    13     6    13 1   
    14     6    17 2   
    15     6    23 1   
    16     7     8 ar  
    17     7    12 ar  
    18     8     9 ar  
    19     8    28 1   
    20     9    10 ar  
    21     9    29 1   
    22    10    22 ar  
    23    10    30 1   
    24    11    14 ar  
    25    11    31 1   
    26    12    22 ar  
    27    13    20 1   
    28    13    32 1   
    29    14    21 ar  
    30    14    33 1   
    31    15    16 ar  
    32    15    20 1   
    33    15    21 ar  
    34    16    34 1   
    35    17    18 1   
    36    17    35 1   
    37    18    19 2   
    38    18    36 1   
    39    19    23 1   
    40    19    37 1   
    41    20    38 1   
    42    24    39 1   
@<TRIPOS>SUBSTRUCTURE
     1 734         1 TEMP              0 ****  ****    0 ROOT
