@<TRIPOS>MOLECULE
734
   39    42     1     0     0
SMALL
No Charge or Current Charge


@<TRIPOS>ATOM
      1 CAA          5.3310    -0.0110     1.1850 ca         1 734      -0.040000
      2 CAB         -1.4710     0.7730     1.2140 ca         1 734       0.184100
      3 CAC         -0.5180     0.2460     0.3140 ca         1 734      -0.129300
      4 CAD         -0.9650    -0.5830    -0.7340 ca         1 734      -0.030000
      5 CAE         -2.3260    -0.8940    -0.8780 ca         1 734       0.085000
      6 CAF          1.4600     1.4150    -0.7300 cc         1 734       0.084300
      7 CAG         -3.2760    -0.3740     0.0290 ca         1 734      -0.030000
      8 CAH         -4.6530    -0.6680    -0.0880 ca         1 734      -0.054000
      9 CAI         -5.5430    -0.1130     0.8450 ca         1 734      -0.156000
     10 CAJ         -5.0430     0.7120     1.8610 ca         1 734       0.360900
     11 CAK          5.7600    -1.3260     0.9450 ca         1 734      -0.213000
     12 CAL         -2.8500     0.4710     1.0880 ca         1 734       0.194000
     13 CAM          0.9710     0.5760     0.4370 c3         1 734       0.263500
     14 CAN          4.8120    -2.3080     0.6070 ca         1 734       0.381900
     15 CAO          3.0970    -0.7940     0.7190 ca         1 734       0.593900
     16 CAP          3.9590     0.2560     1.0710 ca         1 734      -0.215000
     17 CAQ          1.6450     2.7670    -0.8330 cd         1 734      -0.152000
     18 CAR          2.1060     3.0230    -2.1400 cd         1 734      -0.190000
     19 CAS          2.1810     1.8200    -2.7870 cc         1 734       0.128900
     20 NAT          1.7450    -0.6680     0.5860 nu         1 734      -0.899100
     21 NAU          3.4900    -2.0480     0.4970 nb         1 734      -0.741000
     22 NAV         -3.7270     1.0030     1.9860 nb         1 734      -0.691000
     23 OAW          1.7820     0.8160    -1.9330 os         1 734      -0.237000
     24 OAX         -1.0930     1.5990     2.2370 oh         1 734      -0.521100
     25 ClAY        -2.7960    -1.9420    -2.2200 cl         1 734      -0.195000
     26 HAA          6.0380     0.7720     1.4530 ha         1 734       0.114000
     27 HAD         -0.2540    -0.9890    -1.4490 ha         1 734       0.138000
     28 HAH         -5.0380    -1.3080    -0.8780 ha         1 734       0.135000
     29 HAI         -6.6080    -0.3170     0.7870 ha         1 734       0.129000
     30 HAJ         -5.7130     1.1550     2.5980 h4         1 734       0.024100
     31 HAK          6.8110    -1.5890     1.0200 ha         1 734       0.124000
     32 HAM          1.1300     1.1820     1.3400 h1         1 734       0.092700
     33 HAN          5.1220    -3.3350     0.4190 h4         1 734       0.015100
     34 HAP          3.5780     1.2550     1.2530 ha         1 734       0.123000
     35 HAQ          1.4680     3.4990    -0.0510 ha         1 734       0.142000
     36 HAR          2.3560     3.9910    -2.5640 ha         1 734       0.142000
     37 HAS          2.4800     1.5480    -3.7900 h4         1 734       0.052100
     38 HNAT         1.3070    -1.5360     0.3010 hn         1 734       0.483000
     39 HOAX        -1.9350     1.8140     2.7030 ho         1 734       0.502000
@<TRIPOS>BOND
     1     1    11 ar  
     2     1    16 ar  
     3     1    26 1   
     4     2     3 ar  
     5     2    12 ar  
     6     2    24 1   
     7     3     4 ar  
     8     3    13 1   
     9     4     5 ar  
    10     4    27 1   
    11     5     7 ar  
    12     5    25 1   
    13     6    13 1   
    14     6    17 2   
    15     6    23 1   
    16     7     8 ar  
    17     7    12 ar  
    18     8     9 ar  
    19     8    28 1   
    20     9    10 ar  
    21     9    29 1   
    22    10    22 ar  
    23    10    30 1   
    24    11    14 ar  
    25    11    31 1   
    26    12    22 ar  
    27    13    20 1   
    28    13    32 1   
    29    14    21 ar  
    30    14    33 1   
    31    15    16 ar  
    32    15    20 1   
    33    15    21 ar  
    34    16    34 1   
    35    17    18 1   
    36    17    35 1   
    37    18    19 2   
    38    18    36 1   
    39    19    23 1   
    40    19    37 1   
    41    20    38 1   
    42    24    39 1   
@<TRIPOS>SUBSTRUCTURE
     1 734         1 TEMP              0 ****  ****    0 ROOT
