@<TRIPOS>MOLECULE
735
   53    55     1     0     0
SMALL
No Charge or Current Charge


@<TRIPOS>ATOM
      1 C1          13.6130    40.1210    28.3970 c3         1 735      -0.130400
      2 C2          14.1920    39.0860    29.3290 cc         1 735       0.324300
      3 N3          15.0170    39.5670    30.3130 nc         1 735      -0.654000
      4 C4          15.4730    38.5810    31.0760 cd         1 735       0.435900
      5 S5          14.9190    36.9700    30.6360 ss         1 735       0.112600
      6 C6          14.0090    37.7140    29.3300 cd         1 735      -0.307600
      7 C7          13.1890    36.8870    28.4130 c          1 735       0.637700
      8 O8          13.1130    35.6720    28.5170 o          1 735      -0.591100
      9 N9          12.5130    37.5620    27.4310 ns         1 735      -0.489900
     10 C10         11.6600    36.9340    26.4330 c3         1 735       0.172300
     11 C11         11.0680    37.9890    25.5150 ca         1 735      -0.188300
     12 C12          9.8020    38.5390    25.7900 ca         1 735      -0.060000
     13 C13          9.2640    39.5230    24.9440 ca         1 735      -0.180000
     14 C14          9.9780    39.9760    23.8220 ca         1 735       0.224100
     15 O15          9.3730    40.9550    23.0470 os         1 735      -0.345100
     16 C16         10.0150    41.7170    21.9810 c3         1 735       0.036000
     17 C17          8.9010    42.6740    21.4860 c3         1 735      -0.076100
     18 C18         11.1640    42.5600    22.6120 c3         1 735      -0.076100
     19 C19         10.4730    40.8360    20.7520 c          1 735       0.707000
     20 O20         11.3690    41.2600    20.0320 o          1 735      -0.709500
     21 O21          9.9800    39.7250    20.5950 o          1 735      -0.709500
     22 C22         11.2470    39.4190    23.5470 ca         1 735      -0.180000
     23 C23         11.7870    38.4340    24.3910 ca         1 735      -0.060000
     24 C24         16.3900    38.8260    32.2180 ca         1 735      -0.089500
     25 C25         16.8410    37.7650    33.0380 ca         1 735      -0.094500
     26 C26         17.7070    38.0060    34.1190 ca         1 735      -0.065500
     27 C27         18.1510    39.3130    34.4080 ca         1 735      -0.195300
     28 C28         17.6970    40.3760    33.6010 ca         1 735      -0.065500
     29 C29         16.8310    40.1350    32.5210 ca         1 735      -0.094500
     30 C30         19.0870    39.5760    35.5930 c3         1 735       0.356300
     31 F31         19.8930    40.6430    35.3860 f          1 735      -0.115667
     32 F32         19.9000    38.5250    35.8520 f          1 735      -0.115667
     33 F33         18.3890    39.8230    36.7250 f          1 735      -0.115667
     34 H34         13.9200    39.9340    27.3610 hc         1 735       0.055033
     35 H35         12.5190    40.1310    28.4510 hc         1 735       0.055033
     36 H36         13.9570    41.1300    28.6560 hc         1 735       0.055033
     37 H37         16.5020    40.9790    31.9190 ha         1 735       0.135500
     38 H38         18.0100    41.3970    33.8080 ha         1 735       0.129500
     39 H39         18.0290    37.1680    34.7340 ha         1 735       0.129500
     40 H40         16.5260    36.7410    32.8530 ha         1 735       0.135500
     41 H41         12.6140    38.5650    27.3980 hn         1 735       0.311500
     42 H42         10.8580    36.3810    26.9410 h1         1 735       0.043200
     43 H43         12.2560    36.2190    25.8490 h1         1 735       0.043200
     44 H44         12.7660    38.0140    24.1690 ha         1 735       0.090000
     45 H45         11.8260    39.7260    22.6840 ha         1 735       0.130500
     46 H46          8.2870    39.9450    25.1610 ha         1 735       0.130500
     47 H47          9.2370    38.2070    26.6580 ha         1 735       0.090000
     48 H48          9.2780    43.3340    20.6950 hc         1 735       0.028367
     49 H49          8.0560    42.1060    21.0770 hc         1 735       0.028367
     50 H50          8.5280    43.3030    22.3040 hc         1 735       0.028367
     51 H51         11.5020    43.3370    21.9150 hc         1 735       0.028367
     52 H52         12.0360    41.9480    22.8630 hc         1 735       0.028367
     53 H53         10.8230    43.0590    23.5280 hc         1 735       0.028367
@<TRIPOS>BOND
     1     1     2 1   
     2     1    34 1   
     3     1    35 1   
     4     1    36 1   
     5     2     3 1   
     6     2     6 2   
     7     3     4 2   
     8     4     5 1   
     9     4    24 1   
    10     5     6 1   
    11     6     7 1   
    12     7     8 2   
    13     7     9 1   
    14     9    10 1   
    15     9    41 1   
    16    10    11 1   
    17    10    42 1   
    18    10    43 1   
    19    11    12 ar  
    20    11    23 ar  
    21    12    13 ar  
    22    12    47 1   
    23    13    14 ar  
    24    13    46 1   
    25    14    15 1   
    26    14    22 ar  
    27    15    16 1   
    28    16    17 1   
    29    16    18 1   
    30    16    19 1   
    31    17    48 1   
    32    17    49 1   
    33    17    50 1   
    34    18    51 1   
    35    18    52 1   
    36    18    53 1   
    37    19    20 1   
    38    19    21 1   
    39    22    23 ar  
    40    22    45 1   
    41    23    44 1   
    42    24    25 ar  
    43    24    29 ar  
    44    25    26 ar  
    45    25    40 1   
    46    26    27 ar  
    47    26    39 1   
    48    27    28 ar  
    49    27    30 1   
    50    28    29 ar  
    51    28    38 1   
    52    29    37 1   
    53    30    31 1   
    54    30    32 1   
    55    30    33 1   
@<TRIPOS>SUBSTRUCTURE
     1 735         1 TEMP              0 ****  ****    0 ROOT
