@<TRIPOS>MOLECULE
735
   53    55     1     0     0
SMALL
abcg2


@<TRIPOS>ATOM
      1 C1          11.4580    38.7880    30.6920 c3         1 735      -0.130400
      2 C2          12.9240    38.6270    30.4620 cc         1 735       0.324300
      3 N3          13.7790    38.9620    31.4640 nc         1 735      -0.654000
      4 C4          15.0260    38.7980    31.1290 cd         1 735       0.435900
      5 S5          15.2520    38.2240    29.5250 ss         1 735       0.112600
      6 C6          13.5460    38.1860    29.3200 cd         1 735      -0.307600
      7 C7          13.0630    37.7630    27.9910 c          1 735       0.637700
      8 O8          13.8400    37.7430    27.0450 o          1 735      -0.591100
      9 N9          11.7750    37.4080    27.8900 ns         1 735      -0.489900
     10 C10         11.1840    37.0440    26.6190 c3         1 735       0.172300
     11 C11         11.0350    38.2120    25.6780 ca         1 735      -0.188300
     12 C12         10.4690    39.4130    26.0990 ca         1 735      -0.060000
     13 C13         10.3130    40.4730    25.2250 ca         1 735      -0.180000
     14 C14         10.7090    40.3670    23.8870 ca         1 735       0.224100
     15 O15         10.5180    41.4670    23.1420 os         1 735      -0.345100
     16 C16         10.8820    41.5290    21.7560 c3         1 735       0.036000
     17 C17         10.3060    42.8610    21.2830 c3         1 735      -0.076100
     18 C18         12.3990    41.5610    21.6050 c3         1 735      -0.076100
     19 C19         10.1770    40.4060    20.9390 c          1 735       0.707000
     20 O20         10.8020    39.9620    19.9580 o          1 735      -0.709500
     21 O21          9.0330    40.0960    21.3090 o          1 735      -0.709500
     22 C22         11.2730    39.1670    23.4570 ca         1 735      -0.180000
     23 C23         11.4310    38.1150    24.3530 ca         1 735      -0.060000
     24 C24         16.1420    39.0900    32.0270 ca         1 735      -0.089500
     25 C25         17.4650    38.8590    31.6500 ca         1 735      -0.094500
     26 C26         18.5050    39.1530    32.5120 ca         1 735      -0.065500
     27 C27         18.2360    39.6850    33.7680 ca         1 735      -0.195300
     28 C28         16.9220    39.9110    34.1580 ca         1 735      -0.065500
     29 C29         15.8830    39.6170    33.2920 ca         1 735      -0.094500
     30 C30         19.3690    39.9650    34.7050 c3         1 735       0.356300
     31 F31         19.0370    40.8400    35.6580 f          1 735      -0.115667
     32 F32         20.4350    40.4630    34.0670 f          1 735      -0.115667
     33 F33         19.7810    38.8490    35.3270 f          1 735      -0.115667
     34 H34         10.9540    39.2340    29.8350 hc         1 735       0.055033
     35 H35         10.9780    37.8300    30.9050 hc         1 735       0.055033
     36 H36         11.2900    39.4320    31.5520 hc         1 735       0.055033
     37 H37         14.8640    39.8010    33.6000 ha         1 735       0.135500
     38 H38         16.6890    40.3220    35.1300 ha         1 735       0.129500
     39 H39         19.5200    38.9660    32.1890 ha         1 735       0.129500
     40 H40         17.7050    38.4460    30.6780 ha         1 735       0.135500
     41 H41         11.2120    37.3080    28.7170 hn         1 735       0.311500
     42 H42         10.2080    36.6130    26.8480 h1         1 735       0.043200
     43 H43         11.7710    36.2560    26.1430 h1         1 735       0.043200
     44 H44         11.8790    37.1960    23.9950 ha         1 735       0.090000
     45 H45         11.6070    39.0220    22.4400 ha         1 735       0.130500
     46 H46          9.8740    41.4000    25.5730 ha         1 735       0.130500
     47 H47         10.1500    39.5340    27.1280 ha         1 735       0.090000
     48 H48         10.5020    42.9950    20.2190 hc         1 735       0.028367
     49 H49          9.2270    42.9030    21.4350 hc         1 735       0.028367
     50 H50         10.7640    43.6970    21.8150 hc         1 735       0.028367
     51 H51         12.6680    41.7560    20.5690 hc         1 735       0.028367
     52 H52         12.8860    40.6320    21.8980 hc         1 735       0.028367
     53 H53         12.8170    42.3660    22.2130 hc         1 735       0.028367
@<TRIPOS>BOND
     1     1     2 1   
     2     1    34 1   
     3     1    35 1   
     4     1    36 1   
     5     2     3 1   
     6     2     6 2   
     7     3     4 2   
     8     4     5 1   
     9     4    24 1   
    10     5     6 1   
    11     6     7 1   
    12     7     8 2   
    13     7     9 1   
    14     9    10 1   
    15     9    41 1   
    16    10    11 1   
    17    10    42 1   
    18    10    43 1   
    19    11    12 ar  
    20    11    23 ar  
    21    12    13 ar  
    22    12    47 1   
    23    13    14 ar  
    24    13    46 1   
    25    14    15 1   
    26    14    22 ar  
    27    15    16 1   
    28    16    17 1   
    29    16    18 1   
    30    16    19 1   
    31    17    48 1   
    32    17    49 1   
    33    17    50 1   
    34    18    51 1   
    35    18    52 1   
    36    18    53 1   
    37    19    20 1   
    38    19    21 1   
    39    22    23 ar  
    40    22    45 1   
    41    23    44 1   
    42    24    25 ar  
    43    24    29 ar  
    44    25    26 ar  
    45    25    40 1   
    46    26    27 ar  
    47    26    39 1   
    48    27    28 ar  
    49    27    30 1   
    50    28    29 ar  
    51    28    38 1   
    52    29    37 1   
    53    30    31 1   
    54    30    32 1   
    55    30    33 1   
@<TRIPOS>SUBSTRUCTURE
     1 735         1 TEMP              0 ****  ****    0 ROOT
