@<TRIPOS>MOLECULE
736
   61    65     1     0     0
SMALL
No Charge or Current Charge


@<TRIPOS>ATOM
      1 C1          -0.0090    -4.9020     0.2740 ca         1 736       0.337900
      2 N2          -0.2800    -3.7950    -0.4510 nb         1 736      -0.676000
      3 C3           0.1490    -2.5930     0.0160 ca         1 736       0.357300
      4 C4           0.8770    -2.4660     1.2290 ca         1 736      -0.062800
      5 C5           1.1290    -3.6250     1.9850 ca         1 736      -0.074000
      6 C6           0.6820    -4.8610     1.4940 ca         1 736      -0.159000
      7 C9          -0.2630    -1.3760    -0.8220 c3         1 736      -0.066700
      8 C10          0.9780    -0.6340    -1.3290 ca         1 736      -0.054300
      9 C11          1.8950    -0.0070    -0.4460 ca         1 736      -0.046800
     10 C12          1.7390    -0.0630     1.0450 ce         1 736       0.173800
     11 C13          1.3500    -1.1680     1.7410 cf         1 736      -0.242200
     12 C18          1.1940    -0.5560    -2.7230 ca         1 736      -0.101000
     13 C19          2.3020     0.1290    -3.2430 ca         1 736      -0.094000
     14 C20          3.2110     0.7400    -2.3730 ca         1 736       0.112000
     15 C21          3.0120     0.6690    -0.9880 ca         1 736      -0.082000
     16 C24         -1.3180    -0.4420    -0.1240 c6         1 736      -0.046700
     17 C25         -1.7030     0.7730    -1.0150 c6         1 736      -0.102900
     18 C26         -2.7470     1.6660    -0.3050 c6         1 736       0.207300
     19 N27         -3.9700     0.8990     0.0390 n3         1 736      -0.756500
     20 C28         -3.6870    -0.2850     0.8910 c6         1 736       0.207300
     21 C29         -2.6020    -1.2190     0.2860 c6         1 736      -0.102900
     22 Cl40         4.6080     1.5940    -3.0160 cl         1 736      -0.202000
     23 S1          -5.2540     0.8100    -1.1170 s6         1 736       1.217100
     24 N1           2.1040     1.0870     1.7570 nh         1 736      -0.653400
     25 C2           2.7540     1.0680     3.1070 c6         1 736       0.191300
     26 C7           1.6060     2.4450     1.3690 c6         1 736       0.191300
     27 C8           3.8280     2.1960     3.2580 c6         1 736       0.152300
     28 C14          2.6990     3.5490     1.5420 c6         1 736       0.152300
     29 N3           3.3090     3.5490     2.9030 n7         1 736      -0.861400
     30 O1          -5.0030     1.8590    -2.1110 o          1 736      -0.536500
     31 C15         -5.0770    -0.7590    -1.9510 c3         1 736      -0.378100
     32 O2          -6.5050     0.8330    -0.3530 o          1 736      -0.536500
     33 H1          -0.3670    -5.8480    -0.1310 h4         1 736       0.020100
     34 H5           1.6720    -3.5710     2.9260 ha         1 736       0.119000
     35 H6           0.8670    -5.7790     2.0450 ha         1 736       0.126000
     36 H9          -0.7780    -1.7690    -1.7070 hc         1 736       0.075700
     37 H13          1.3200    -1.1040     2.8280 ha         1 736       0.182000
     38 H18          0.4960    -1.0250    -3.4140 ha         1 736       0.122000
     39 H19          2.4570     0.1830    -4.3180 ha         1 736       0.133000
     40 H21          3.7390     1.1350    -0.3290 ha         1 736       0.145000
     41 H24         -0.8670    -0.0470     0.7950 hc         1 736       0.063700
     42 H251        -2.0940     0.4330    -1.9830 hc         1 736       0.052950
     43 H252        -0.8150     1.3810    -1.2340 hc         1 736       0.052950
     44 H261        -2.9700     2.5480    -0.9220 h1         1 736       0.069700
     45 H262        -2.2890     2.0530     0.6170 h1         1 736       0.069700
     46 H281        -3.3190     0.0600     1.8690 h1         1 736       0.069700
     47 H282        -4.6030    -0.8590     1.0950 h1         1 736       0.069700
     48 H291        -2.9980    -1.7640    -0.5780 hc         1 736       0.052950
     49 H292        -2.3510    -1.9870     1.0300 hc         1 736       0.052950
     50 H21A         1.9890     1.1960     3.8870 h1         1 736       0.045950
     51 H22          3.2440     0.1010     3.2860 h1         1 736       0.045950
     52 H71          1.2530     2.4520     0.3280 h1         1 736       0.045950
     53 H72          0.7400     2.7050     1.9960 h1         1 736       0.045950
     54 H81          4.2040     2.2050     4.2920 h1         1 736       0.040200
     55 H82          4.6790     1.9560     2.6030 h1         1 736       0.040200
     56 H141         2.2570     4.5350     1.3360 h1         1 736       0.040200
     57 H142         3.4880     3.3830     0.7940 h1         1 736       0.040200
     58 HN3          4.0840     4.2250     2.9260 hn         1 736       0.417000
     59 H151        -4.0800    -0.7890    -2.4000 h1         1 736       0.099033
     60 H152        -5.2180    -1.5530    -1.2120 h1         1 736       0.099033
     61 H153        -5.8540    -0.8030    -2.7210 h1         1 736       0.099033
@<TRIPOS>BOND
     1     1     2 ar  
     2     1     6 ar  
     3     1    33 1   
     4     2     3 ar  
     5     3     4 ar  
     6     3     7 1   
     7     4     5 ar  
     8     4    11 1   
     9     5     6 ar  
    10     5    34 1   
    11     6    35 1   
    12     7     8 1   
    13     7    16 1   
    14     7    36 1   
    15     8     9 ar  
    16     8    12 ar  
    17     9    10 1   
    18     9    15 ar  
    19    10    11 2   
    20    10    24 1   
    21    11    37 1   
    22    12    13 ar  
    23    12    38 1   
    24    13    14 ar  
    25    13    39 1   
    26    14    15 ar  
    27    14    22 1   
    28    15    40 1   
    29    16    17 1   
    30    16    21 1   
    31    16    41 1   
    32    17    18 1   
    33    17    42 1   
    34    17    43 1   
    35    18    19 1   
    36    18    44 1   
    37    18    45 1   
    38    19    20 1   
    39    19    23 1   
    40    20    21 1   
    41    20    46 1   
    42    20    47 1   
    43    21    48 1   
    44    21    49 1   
    45    23    30 2   
    46    23    31 1   
    47    23    32 2   
    48    24    25 1   
    49    24    26 1   
    50    25    27 1   
    51    25    50 1   
    52    25    51 1   
    53    26    28 1   
    54    26    52 1   
    55    26    53 1   
    56    27    29 1   
    57    27    54 1   
    58    27    55 1   
    59    28    29 1   
    60    28    56 1   
    61    28    57 1   
    62    29    58 1   
    63    31    59 1   
    64    31    60 1   
    65    31    61 1   
@<TRIPOS>SUBSTRUCTURE
     1 736         1 TEMP              0 ****  ****    0 ROOT
