@<TRIPOS>MOLECULE
736
   61    65     1     0     0
SMALL
abcg2


@<TRIPOS>ATOM
      1 C1           0.0420    -4.8730     0.3240 ca         1 736       0.337900
      2 N2          -0.2440    -3.7900    -0.3860 nb         1 736      -0.676000
      3 C3           0.1780    -2.6030     0.0360 ca         1 736       0.357300
      4 C4           0.9550    -2.4460     1.1960 ca         1 736      -0.062800
      5 C5           1.2100    -3.5960     1.9470 ca         1 736      -0.074000
      6 C6           0.7560    -4.8260     1.5120 ca         1 736      -0.159000
      7 C9          -0.2320    -1.4170    -0.8010 c3         1 736      -0.066700
      8 C10          1.0080    -0.7550    -1.3430 ca         1 736      -0.054300
      9 C11          1.9460    -0.1320    -0.5130 ca         1 736      -0.046800
     10 C12          1.8360    -0.0980     0.9630 ce         1 736       0.173800
     11 C13          1.4260    -1.1600     1.6890 cf         1 736      -0.242200
     12 C18          1.2340    -0.7720    -2.7190 ca         1 736      -0.101000
     13 C19          2.3470    -0.1810    -3.2880 ca         1 736      -0.094000
     14 C20          3.2640     0.4360    -2.4510 ca         1 736       0.112000
     15 C21          3.0750     0.4650    -1.0850 ca         1 736      -0.082000
     16 C24         -1.2080    -0.4500    -0.1020 c6         1 736      -0.046700
     17 C25         -1.5880     0.6990    -1.0320 c6         1 736      -0.102900
     18 C26         -2.5970     1.6290    -0.3750 c6         1 736       0.207300
     19 N27         -3.7730     0.9190     0.1190 n3         1 736      -0.756500
     20 C28         -3.4680    -0.2200     0.9830 c6         1 736       0.207300
     21 C29         -2.4690    -1.1810     0.3530 c6         1 736      -0.102900
     22 CL40         4.6770     1.1790    -3.1310 cl         1 736      -0.202000
     23 S1          -5.1900     0.9620    -0.7050 s6         1 736       1.217100
     24 N1           2.3190     1.0720     1.5450 nh         1 736      -0.653400
     25 C2           2.6070     1.0660     2.9660 c6         1 736       0.191300
     26 C7           1.6550     2.3040     1.1250 c6         1 736       0.191300
     27 C8           3.4200     2.2940     3.3350 c6         1 736       0.152300
     28 C14          2.4750     3.5140     1.5270 c6         1 736       0.152300
     29 N3           2.7010     3.4940     2.9580 n7         1 736      -0.861400
     30 O1          -5.3000     2.2830    -1.3080 o          1 736      -0.536500
     31 C15         -5.1010    -0.2290    -2.0260 c3         1 736      -0.378100
     32 O2          -6.2340     0.5150     0.2070 o          1 736      -0.536500
     33 H1          -0.3210    -5.8180    -0.0650 h4         1 736       0.020100
     34 H5           1.7780    -3.5180     2.8670 ha         1 736       0.119000
     35 H6           0.9530    -5.7300     2.0720 ha         1 736       0.126000
     36 H9          -0.7740    -1.8330    -1.6550 hc         1 736       0.075700
     37 H13          1.4610    -1.0850     2.7700 ha         1 736       0.182000
     38 H18          0.5100    -1.2550    -3.3640 ha         1 736       0.122000
     39 H19          2.4950    -0.2000    -4.3590 ha         1 736       0.133000
     40 H21          3.8010     0.9470    -0.4440 ha         1 736       0.145000
     41 H24         -0.7340    -0.0210     0.7860 hc         1 736       0.063700
     42 H251        -1.9940     0.3070    -1.9710 hc         1 736       0.052950
     43 H252        -0.7070     1.2870    -1.3010 hc         1 736       0.052950
     44 H261        -2.8990     2.4230    -1.0540 h1         1 736       0.069700
     45 H262        -2.1360     2.1180     0.4890 h1         1 736       0.069700
     46 H281        -3.0520     0.1830     1.9110 h1         1 736       0.069700
     47 H282        -4.3860    -0.7350     1.2560 h1         1 736       0.069700
     48 H291        -2.9240    -1.7000    -0.4990 hc         1 736       0.052950
     49 H292        -2.2300    -1.9490     1.0930 hc         1 736       0.052950
     50 H21A         1.6870     1.0410     3.5700 h1         1 736       0.045950
     51 H22          3.1850     0.1730     3.2090 h1         1 736       0.045950
     52 H71          1.5250     2.3060     0.0430 h1         1 736       0.045950
     53 H72          0.6540     2.3730     1.5750 h1         1 736       0.045950
     54 H81          3.5860     2.2920     4.4140 h1         1 736       0.040200
     55 H82          4.4070     2.2170     2.8510 h1         1 736       0.040200
     56 H141         1.9250     4.4180     1.2560 h1         1 736       0.040200
     57 H142         3.4110     3.5120     0.9450 h1         1 736       0.040200
     58 HN3          3.2280     4.3110     3.2340 hn         1 736       0.417000
     59 H151        -4.2760     0.0180    -2.6900 h1         1 736       0.099033
     60 H152        -4.9650    -1.2250    -1.6110 h1         1 736       0.099033
     61 H153        -6.0400    -0.1890    -2.5770 h1         1 736       0.099033
@<TRIPOS>BOND
     1     1     2 ar  
     2     1     6 ar  
     3     1    33 1   
     4     2     3 ar  
     5     3     4 ar  
     6     3     7 1   
     7     4     5 ar  
     8     4    11 1   
     9     5     6 ar  
    10     5    34 1   
    11     6    35 1   
    12     7     8 1   
    13     7    16 1   
    14     7    36 1   
    15     8     9 ar  
    16     8    12 ar  
    17     9    10 1   
    18     9    15 ar  
    19    10    11 2   
    20    10    24 1   
    21    11    37 1   
    22    12    13 ar  
    23    12    38 1   
    24    13    14 ar  
    25    13    39 1   
    26    14    15 ar  
    27    14    22 1   
    28    15    40 1   
    29    16    17 1   
    30    16    21 1   
    31    16    41 1   
    32    17    18 1   
    33    17    42 1   
    34    17    43 1   
    35    18    19 1   
    36    18    44 1   
    37    18    45 1   
    38    19    20 1   
    39    19    23 1   
    40    20    21 1   
    41    20    46 1   
    42    20    47 1   
    43    21    48 1   
    44    21    49 1   
    45    23    30 2   
    46    23    31 1   
    47    23    32 2   
    48    24    25 1   
    49    24    26 1   
    50    25    27 1   
    51    25    50 1   
    52    25    51 1   
    53    26    28 1   
    54    26    52 1   
    55    26    53 1   
    56    27    29 1   
    57    27    54 1   
    58    27    55 1   
    59    28    29 1   
    60    28    56 1   
    61    28    57 1   
    62    29    58 1   
    63    31    59 1   
    64    31    60 1   
    65    31    61 1   
@<TRIPOS>SUBSTRUCTURE
     1 736         1 TEMP              0 ****  ****    0 ROOT
