@<TRIPOS>MOLECULE
738
   34    36     1     0     0
SMALL
abcg2


@<TRIPOS>ATOM
      1 F19         -0.2250     2.2560    -1.9400 f          1 738      -0.174000
      2 C16          0.3670     3.0710    -1.0500 ca         1 738       0.201000
      3 C18          0.3770     4.4220    -1.3290 ca         1 738      -0.157000
      4 C21          0.9910     5.2840    -0.4340 ca         1 738      -0.055000
      5 C20          1.5890     4.7870     0.7170 ca         1 738      -0.135000
      6 C17          1.5760     3.4270     0.9670 ca         1 738      -0.031000
      7 C14          0.9520     2.5340     0.0920 ca         1 738      -0.194600
      8 C13          1.0060     1.0900     0.4430 c          1 738       0.622700
      9 O15          1.8620     0.6450     1.1840 o          1 738      -0.574100
     10 N10          0.0380     0.2790    -0.0650 ns         1 738      -0.366100
     11 C5          -0.0530    -1.0650     0.1990 cc         1 738      -0.032400
     12 C2          -1.0250    -1.9030    -0.3000 cd         1 738      -0.124000
     13 C6          -2.0490    -1.4520    -1.1620 ch         1 738       0.351000
     14 N11         -2.8840    -1.0690    -1.8620 n1         1 738      -0.475000
     15 S7           1.0390    -1.9190     1.2130 ss         1 738       0.320000
     16 C3           0.1840    -3.4070     0.9650 cc         1 738      -0.253300
     17 C8           0.6050    -4.6860     1.6130 c6         1 738       0.002900
     18 C12         -0.1030    -5.8620     0.9400 c6         1 738      -0.071400
     19 C9          -1.5860    -5.5710     0.7290 c6         1 738      -0.072400
     20 C4          -1.7940    -4.3900    -0.2160 c6         1 738      -0.015100
     21 C1          -0.8870    -3.2570     0.1490 cd         1 738      -0.037300
     22 H18         -0.0840     4.7870    -2.2370 ha         1 738       0.141000
     23 H21          1.0010     6.3450    -0.6420 ha         1 738       0.124000
     24 H20          2.0680     5.4580     1.4170 ha         1 738       0.128000
     25 H17          2.0470     3.0420     1.8610 ha         1 738       0.142000
     26 HN10        -0.6960     0.6780    -0.6320 hn         1 738       0.348500
     27 H81          1.6890    -4.8130     1.5540 hc         1 738       0.050200
     28 H82          0.3560    -4.6610     2.6790 hc         1 738       0.050200
     29 H121         0.3680    -6.0690    -0.0250 hc         1 738       0.043700
     30 H122         0.0240    -6.7560     1.5520 hc         1 738       0.043700
     31 H91         -2.0520    -5.3480     1.6940 hc         1 738       0.043700
     32 H92         -2.0930    -6.4510     0.3310 hc         1 738       0.043700
     33 H41         -2.8370    -4.0620    -0.1910 hc         1 738       0.056200
     34 H42         -1.5960    -4.6960    -1.2490 hc         1 738       0.056200
@<TRIPOS>BOND
     1     1     2 1   
     2     2     3 ar  
     3     2     7 ar  
     4     3     4 ar  
     5     3    22 1   
     6     4     5 ar  
     7     4    23 1   
     8     5     6 ar  
     9     5    24 1   
    10     6     7 ar  
    11     6    25 1   
    12     7     8 1   
    13     8     9 2   
    14     8    10 1   
    15    10    11 1   
    16    10    26 1   
    17    11    12 2   
    18    11    15 1   
    19    12    13 1   
    20    12    21 1   
    21    13    14 3   
    22    15    16 1   
    23    16    17 1   
    24    16    21 2   
    25    17    18 1   
    26    17    27 1   
    27    17    28 1   
    28    18    19 1   
    29    18    29 1   
    30    18    30 1   
    31    19    20 1   
    32    19    31 1   
    33    19    32 1   
    34    20    21 1   
    35    20    33 1   
    36    20    34 1   
@<TRIPOS>SUBSTRUCTURE
     1 738         1 TEMP              0 ****  ****    0 ROOT
