@<TRIPOS>MOLECULE
738
   34    36     1     0     0
SMALL
No Charge or Current Charge


@<TRIPOS>ATOM
      1 F19         -0.8550     2.2430    -1.3610 f          1 738      -0.174000
      2 C16          0.0290     3.0800    -0.7750 ca         1 738       0.201000
      3 C18         -0.0020     4.4280    -1.1690 ca         1 738      -0.157000
      4 C21          0.8850     5.3560    -0.6050 ca         1 738      -0.055000
      5 C20          1.8070     4.9310     0.3600 ca         1 738      -0.135000
      6 C17          1.8440     3.5840     0.7600 ca         1 738      -0.031000
      7 C14          0.9570     2.6290     0.2020 ca         1 738      -0.194600
      8 C13          1.0560     1.1920     0.6840 c          1 738       0.622700
      9 O15          1.8800     0.8710     1.5300 o          1 738      -0.574100
     10 N10          0.1870     0.2670     0.1340 ns         1 738      -0.366100
     11 C5           0.0720    -1.1030     0.3990 cc         1 738      -0.032400
     12 C2          -0.8590    -1.8980    -0.2430 cd         1 738      -0.124000
     13 C6          -1.7730    -1.4110    -1.2230 ch         1 738       0.351000
     14 N11         -2.5090    -0.9840    -2.0220 n1         1 738      -0.475000
     15 S7           1.0440    -2.0380     1.5470 ss         1 738       0.320000
     16 C3           0.1750    -3.5060     1.1310 cc         1 738      -0.253300
     17 C8           0.4470    -4.8580     1.7520 c6         1 738       0.002900
     18 C12         -0.1900    -5.9910     0.9100 c6         1 738      -0.071400
     19 C9          -1.6440    -5.6400     0.5160 c6         1 738      -0.072400
     20 C4          -1.6920    -4.3620    -0.3600 c6         1 738      -0.015100
     21 C1          -0.7940    -3.2630     0.1870 cd         1 738      -0.037300
     22 H18         -0.7200     4.7510    -1.9180 ha         1 738       0.141000
     23 H21          0.8560     6.3990    -0.9140 ha         1 738       0.124000
     24 H20          2.4980     5.6460     0.8020 ha         1 738       0.128000
     25 H17          2.5730     3.2870     1.5120 ha         1 738       0.142000
     26 HN10        -0.4410     0.6650    -0.5530 hn         1 738       0.348500
     27 H81          1.5260    -5.0350     1.8520 hc         1 738       0.050200
     28 H82          0.0350    -4.8880     2.7700 hc         1 738       0.050200
     29 H121         0.4070    -6.1570     0.0020 hc         1 738       0.043700
     30 H122        -0.1670    -6.9320     1.4760 hc         1 738       0.043700
     31 H91         -2.2420    -5.4860     1.4250 hc         1 738       0.043700
     32 H92         -2.1040    -6.4790    -0.0230 hc         1 738       0.043700
     33 H41         -2.7330    -4.0180    -0.4370 hc         1 738       0.056200
     34 H42         -1.3770    -4.6140    -1.3820 hc         1 738       0.056200
@<TRIPOS>BOND
     1     1     2 1   
     2     2     3 ar  
     3     2     7 ar  
     4     3     4 ar  
     5     3    22 1   
     6     4     5 ar  
     7     4    23 1   
     8     5     6 ar  
     9     5    24 1   
    10     6     7 ar  
    11     6    25 1   
    12     7     8 1   
    13     8     9 2   
    14     8    10 1   
    15    10    11 1   
    16    10    26 1   
    17    11    12 2   
    18    11    15 1   
    19    12    13 1   
    20    12    21 1   
    21    13    14 3   
    22    15    16 1   
    23    16    17 1   
    24    16    21 2   
    25    17    18 1   
    26    17    27 1   
    27    17    28 1   
    28    18    19 1   
    29    18    29 1   
    30    18    30 1   
    31    19    20 1   
    32    19    31 1   
    33    19    32 1   
    34    20    21 1   
    35    20    33 1   
    36    20    34 1   
@<TRIPOS>SUBSTRUCTURE
     1 738         1 TEMP              0 ****  ****    0 ROOT
