@<TRIPOS>MOLECULE
739
   72    72     1     0     0
SMALL
No Charge or Current Charge


@<TRIPOS>ATOM
      1 CBC         -0.7610    -1.2710     6.6590 c3         1 739       0.033600
      2 SCC         -0.5190    -2.3470     8.1550 sh         1 739      -0.453800
      3 CC           0.0990    -0.4960     4.3600 c3         1 739       0.177800
      4 NC           1.6900    -0.8830     6.2480 n8         1 739      -0.974200
      5 CAC          0.4060    -1.3250     5.6420 c3         1 739       0.158500
      6 NI           1.2780    -0.4390     3.4530 n7         1 739      -0.865400
      7 CAI          1.1660     0.4760     2.2850 c3         1 739       0.170500
      8 CBI          2.5710     0.7020     1.6320 c3         1 739      -0.049700
      9 CCI          3.5330     1.4220     2.6150 c3         1 739      -0.081100
     10 CDI          3.2030    -0.5920     1.0300 c3         1 739      -0.069400
     11 CEI          4.5130    -0.3650     0.2430 c3         1 739      -0.091100
     12 CI           0.0710    -0.0090     1.2850 c3         1 739       0.134600
     13 O'F         -0.1100     0.9960     0.2660 os         1 739      -0.439000
     14 CAF         -1.2560     0.8110    -0.6070 c3         1 739       0.095300
     15 CBF         -2.4460     1.6330    -0.0380 c3         1 739      -0.055100
     16 CCF         -2.9150     1.1840     1.3430 ca         1 739      -0.061300
     17 CDF         -2.5820     1.9360     2.4890 ca         1 739      -0.105500
     18 CEF         -3.6510    -0.0080     1.4900 ca         1 739      -0.105500
     19 CFF         -2.9750     1.4970     3.7650 ca         1 739      -0.120500
     20 CGF         -4.0440    -0.4470     2.7670 ca         1 739      -0.120500
     21 CHF         -3.7040     0.3040     3.9050 ca         1 739      -0.126000
     22 CF          -0.9240     1.2550    -2.0630 c          1 739       0.593100
     23 OF          -0.1880     2.1990    -2.3310 o          1 739      -0.593100
     24 NM          -1.4610     0.4450    -3.0480 ns         1 739      -0.463900
     25 CAM         -1.1790     0.5570    -4.5010 c3         1 739      -0.047300
     26 CBM         -0.0350    -0.3950    -4.9400 c3         1 739      -0.048400
     27 CCM          1.2890    -0.1890    -4.1570 c3         1 739      -0.271400
     28 SDM          2.6350    -1.2560    -4.7200 s6         1 739       1.065000
     29 ODM          2.2420    -2.6520    -4.4870 o          1 739      -0.530000
     30 OEM          3.0240    -0.8320    -6.0700 o          1 739      -0.530000
     31 CEM          3.9940    -0.8800    -3.6130 c3         1 739      -0.346100
     32 CM          -2.4750     0.3120    -5.3330 c          1 739       0.715000
     33 OXT         -3.1240    -0.7030    -5.1150 o          1 739      -0.714500
     34 O           -2.8330     1.1840    -6.1120 o          1 739      -0.714500
     35 HBC1        -0.9010    -0.2350     6.9960 h1         1 739       0.073200
     36 HBC2        -1.6880    -1.5850     6.1610 h1         1 739       0.073200
     37 HCC          0.7670    -1.9720     8.3730 hs         1 739       0.201800
     38 HCC1        -0.1860     0.5220     4.6600 h1         1 739       0.027200
     39 HCC2        -0.7660    -0.9440     3.8530 h1         1 739       0.027200
     40 HNC1         2.2940    -0.6540     5.4470 hn         1 739       0.392000
     41 HNC2         1.5470     0.0350     6.6790 hn         1 739       0.392000
     42 HAC          0.5320    -2.3700     5.3250 h1         1 739       0.072700
     43 HNI          1.4860    -1.3850     3.1140 hn         1 739       0.415000
     44 HAI          0.8300     1.4580     2.6460 h1         1 739       0.063700
     45 HBI          2.4150     1.3970     0.7970 hc         1 739       0.085700
     46 HCI1         3.8450     0.7510     3.4250 hc         1 739       0.031033
     47 HCI2         4.4310     1.7800     2.1000 hc         1 739       0.031033
     48 HCI3         3.0440     2.2950     3.0640 hc         1 739       0.031033
     49 HDI1         2.4910    -1.0620     0.3430 hc         1 739       0.032200
     50 HDI2         3.3950    -1.3180     1.8290 hc         1 739       0.032200
     51 HEI1         4.8310    -1.2970    -0.2390 hc         1 739       0.030033
     52 HEI2         4.3720     0.3920    -0.5370 hc         1 739       0.030033
     53 HEI3         5.3230    -0.0380     0.9060 hc         1 739       0.030033
     54 HI1          0.3560    -0.9690     0.8370 h1         1 739       0.024200
     55 HI2         -0.8610    -0.1760     1.8320 h1         1 739       0.024200
     56 HAF         -1.5380    -0.2500    -0.6480 h1         1 739       0.030700
     57 HBF1        -2.1630     2.6930    -0.0190 hc         1 739       0.089700
     58 HBF2        -3.2850     1.5650    -0.7410 hc         1 739       0.089700
     59 HDF         -2.0060     2.8530     2.3920 ha         1 739       0.118000
     60 HEF         -3.9100    -0.6010     0.6150 ha         1 739       0.118000
     61 HFF         -2.7100     2.0780     4.6450 ha         1 739       0.102000
     62 HGF         -4.6080    -1.3700     2.8740 ha         1 739       0.102000
     63 HHF         -4.0070    -0.0360     4.8920 ha         1 739       0.100000
     64 HNM         -2.0610    -0.3130    -2.7410 hn         1 739       0.288500
     65 HAM         -0.8630     1.5870    -4.7130 h1         1 739       0.068700
     66 HBM1        -0.3690    -1.4340    -4.8190 hc         1 739       0.072700
     67 HBM2         0.1490    -0.2470    -6.0130 hc         1 739       0.072700
     68 HCM1         1.6450     0.8420    -4.2640 h1         1 739       0.089200
     69 HCM2         1.1500    -0.4140    -3.0940 h1         1 739       0.089200
     70 HEM1         4.8480    -1.4960    -3.9130 h1         1 739       0.095033
     71 HEM2         4.2220     0.1860    -3.7110 h1         1 739       0.095033
     72 HEM3         3.6710    -1.1230    -2.5950 h1         1 739       0.095033
@<TRIPOS>BOND
     1     1     2 1   
     2     1     5 1   
     3     1    35 1   
     4     1    36 1   
     5     2    37 1   
     6     3     5 1   
     7     3     6 1   
     8     3    38 1   
     9     3    39 1   
    10     4     5 1   
    11     4    40 1   
    12     4    41 1   
    13     5    42 1   
    14     6     7 1   
    15     6    43 1   
    16     7     8 1   
    17     7    12 1   
    18     7    44 1   
    19     8     9 1   
    20     8    10 1   
    21     8    45 1   
    22     9    46 1   
    23     9    47 1   
    24     9    48 1   
    25    10    11 1   
    26    10    49 1   
    27    10    50 1   
    28    11    51 1   
    29    11    52 1   
    30    11    53 1   
    31    12    13 1   
    32    12    54 1   
    33    12    55 1   
    34    13    14 1   
    35    14    15 1   
    36    14    22 1   
    37    14    56 1   
    38    15    16 1   
    39    15    57 1   
    40    15    58 1   
    41    16    17 ar  
    42    16    18 ar  
    43    17    19 ar  
    44    17    59 1   
    45    18    20 ar  
    46    18    60 1   
    47    19    21 ar  
    48    19    61 1   
    49    20    21 ar  
    50    20    62 1   
    51    21    63 1   
    52    22    23 2   
    53    22    24 1   
    54    24    25 1   
    55    24    64 1   
    56    25    26 1   
    57    25    32 1   
    58    25    65 1   
    59    26    27 1   
    60    26    66 1   
    61    26    67 1   
    62    27    28 1   
    63    27    68 1   
    64    27    69 1   
    65    28    29 2   
    66    28    30 2   
    67    28    31 1   
    68    31    70 1   
    69    31    71 1   
    70    31    72 1   
    71    32    33 1   
    72    32    34 1   
@<TRIPOS>SUBSTRUCTURE
     1 739         1 TEMP              0 ****  ****    0 ROOT
