@<TRIPOS>MOLECULE
739
   72    72     1     0     0
SMALL
bcc


@<TRIPOS>ATOM
      1 CBC          0.4070    -0.6980     7.1450 c3         1 739      -0.014300
      2 SCC          0.7220    -1.9210     8.4550 sh         1 739      -0.405900
      3 CC           0.7920     0.1150     4.8380 c3         1 739       0.177800
      4 NC           2.6570    -0.9130     6.0500 n8         1 739      -0.863800
      5 CAC          1.2200    -0.9300     5.8660 c3         1 739       0.158500
      6 NI           1.4360    -0.0750     3.5570 n7         1 739      -0.810200
      7 CAI          1.0050     0.8350     2.5090 c3         1 739       0.170500
      8 CBI          2.1050     1.0250     1.4510 c3         1 739      -0.049700
      9 CCI          3.3050     1.7220     2.0870 c3         1 739      -0.081100
     10 CDI          2.5080    -0.2850     0.7680 c3         1 739      -0.069400
     11 CEI          3.3720    -0.0790    -0.4700 c3         1 739      -0.091100
     12 CI          -0.3370     0.3970     1.9180 c3         1 739       0.111400
     13 O'F         -0.8010     1.3410     0.9760 os         1 739      -0.392600
     14 CAF         -1.3180     0.8510    -0.2260 c3         1 739       0.072100
     15 CBF         -2.8060     1.2110    -0.3530 c3         1 739      -0.055100
     16 CCF         -3.5960     0.5890     0.7610 ca         1 739      -0.061300
     17 CDF         -3.8080     1.2700     1.9570 ca         1 739      -0.123500
     18 CEF         -4.0830    -0.7120     0.6430 ca         1 739      -0.123500
     19 CFF         -4.4860     0.6680     3.0090 ca         1 739      -0.138500
     20 CGF         -4.7620    -1.3180     1.6910 ca         1 739      -0.138500
     21 CHF         -4.9640    -0.6300     2.8810 ca         1 739      -0.144000
     22 CF          -0.5490     1.4610    -1.3950 c          1 739       0.660100
     23 OF          -0.0750     2.5840    -1.3390 o          1 739      -0.593100
     24 NM          -0.4610     0.6570    -2.4660 ns         1 739      -0.530900
     25 CAM         -0.0920     1.1340    -3.7760 c3         1 739      -0.047300
     26 CBM          0.5050    -0.0090    -4.5930 c3         1 739      -0.048400
     27 CCM          1.7470    -0.5760    -3.9200 c3         1 739      -0.160600
     28 SDM          2.3990    -1.9550    -4.8560 s6         1 739       0.985000
     29 ODM          1.4090    -3.0340    -4.8400 o          1 739      -0.600800
     30 OEM          2.8490    -1.4690    -6.1620 o          1 739      -0.600800
     31 CEM          3.8220    -2.4810    -3.9260 c3         1 739      -0.235300
     32 CM          -1.2870     1.8020    -4.5180 c          1 739       0.925600
     33 OXT         -2.3370     1.9630    -3.8760 o          1 739      -0.819800
     34 O           -1.0560     2.1310    -5.6970 o          1 739      -0.819800
     35 HBC1         0.5900     0.3010     7.5460 h1         1 739       0.073200
     36 HBC2        -0.6620    -0.7750     6.9360 h1         1 739       0.073200
     37 HCC          1.8660    -1.4090     8.9220 hs         1 739       0.201800
     38 HCC1         1.0620     1.1090     5.2130 h1         1 739       0.027200
     39 HCC2        -0.3080     0.1010     4.7850 h1         1 739       0.027200
     40 HNC1         2.9460    -0.0050     6.3950 hn         1 739       0.336800
     41 HNC2         2.9180    -1.5860     6.7620 hn         1 739       0.336800
     42 HAC          0.9480    -1.9210     5.4830 h1         1 739       0.072700
     43 HNI          1.3290    -1.0370     3.2550 hn         1 739       0.359800
     44 HAI          0.8520     1.8130     2.9810 h1         1 739       0.063700
     45 HBI          1.6970     1.6870     0.6800 hc         1 739       0.085700
     46 HCI1         3.6770     1.1390     2.9300 hc         1 739       0.031033
     47 HCI2         4.1220     1.8630     1.3790 hc         1 739       0.031033
     48 HCI3         3.0290     2.7100     2.4620 hc         1 739       0.031033
     49 HDI1         1.6150    -0.8390     0.4610 hc         1 739       0.032200
     50 HDI2         3.0350    -0.9260     1.4820 hc         1 739       0.032200
     51 HEI1         3.5950    -1.0300    -0.9560 hc         1 739       0.030033
     52 HEI2         2.8590     0.5530    -1.1980 hc         1 739       0.030033
     53 HEI3         4.3260     0.3940    -0.2370 hc         1 739       0.030033
     54 HI1         -0.2310    -0.5940     1.4600 h1         1 739       0.024200
     55 HI2         -1.0770     0.2910     2.7200 h1         1 739       0.024200
     56 HAF         -1.2260    -0.2430    -0.2730 h1         1 739       0.030700
     57 HBF1        -2.9090     2.2990    -0.3340 hc         1 739       0.089700
     58 HBF2        -3.1710     0.8760    -1.3260 hc         1 739       0.089700
     59 HDF         -3.4430     2.2830     2.0690 ha         1 739       0.136000
     60 HEF         -3.9330    -1.2580    -0.2820 ha         1 739       0.136000
     61 HFF         -4.6400     1.2140     3.9310 ha         1 739       0.120000
     62 HGF         -5.1360    -2.3270     1.5760 ha         1 739       0.120000
     63 HHF         -5.4940    -1.0990     3.6990 ha         1 739       0.118000
     64 HNM         -0.9990    -0.1970    -2.4430 hn         1 739       0.288500
     65 HAM          0.6770     1.9000    -3.6420 h1         1 739       0.068700
     66 HBM1        -0.2430    -0.7960    -4.7230 hc         1 739       0.072700
     67 HBM2         0.7540     0.3710    -5.5820 hc         1 739       0.072700
     68 HCM1         2.5400     0.1710    -3.8490 h1         1 739       0.089200
     69 HCM2         1.5310    -0.9500    -2.9180 h1         1 739       0.089200
     70 HEM1         4.2550    -3.3280    -4.4560 h1         1 739       0.095033
     71 HEM2         4.5440    -1.6690    -3.8720 h1         1 739       0.095033
     72 HEM3         3.5150    -2.7880    -2.9290 h1         1 739       0.095033
@<TRIPOS>BOND
     1     1     2 1   
     2     1     5 1   
     3     1    35 1   
     4     1    36 1   
     5     2    37 1   
     6     3     5 1   
     7     3     6 1   
     8     3    38 1   
     9     3    39 1   
    10     4     5 1   
    11     4    40 1   
    12     4    41 1   
    13     5    42 1   
    14     6     7 1   
    15     6    43 1   
    16     7     8 1   
    17     7    12 1   
    18     7    44 1   
    19     8     9 1   
    20     8    10 1   
    21     8    45 1   
    22     9    46 1   
    23     9    47 1   
    24     9    48 1   
    25    10    11 1   
    26    10    49 1   
    27    10    50 1   
    28    11    51 1   
    29    11    52 1   
    30    11    53 1   
    31    12    13 1   
    32    12    54 1   
    33    12    55 1   
    34    13    14 1   
    35    14    15 1   
    36    14    22 1   
    37    14    56 1   
    38    15    16 1   
    39    15    57 1   
    40    15    58 1   
    41    16    17 ar  
    42    16    18 ar  
    43    17    19 ar  
    44    17    59 1   
    45    18    20 ar  
    46    18    60 1   
    47    19    21 ar  
    48    19    61 1   
    49    20    21 ar  
    50    20    62 1   
    51    21    63 1   
    52    22    23 2   
    53    22    24 1   
    54    24    25 1   
    55    24    64 1   
    56    25    26 1   
    57    25    32 1   
    58    25    65 1   
    59    26    27 1   
    60    26    66 1   
    61    26    67 1   
    62    27    28 1   
    63    27    68 1   
    64    27    69 1   
    65    28    29 2   
    66    28    30 2   
    67    28    31 1   
    68    31    70 1   
    69    31    71 1   
    70    31    72 1   
    71    32    33 1   
    72    32    34 1   
@<TRIPOS>SUBSTRUCTURE
     1 739         1 TEMP              0 ****  ****    0 ROOT
