@<TRIPOS>MOLECULE
73A
   54    56     1     0     0
SMALL
No Charge or Current Charge


@<TRIPOS>ATOM
      1 C2          -3.1390    -0.5500    -0.5050 ca         1 73A       0.166500
      2 N1          -4.0260    -3.1410    -0.8540 nb         1 73A      -0.309000
      3 N2          -4.4330    -0.7540    -0.8250 nb         1 73A      -0.238000
      4 C3          -2.2730    -1.6070    -0.3670 ca         1 73A      -0.262800
      5 C8           2.7430    -3.0520     0.6760 ca         1 73A       0.122000
      6 C7           2.1970    -2.2240     1.6700 ca         1 73A      -0.102500
      7 C1          -4.8100    -2.0450    -0.9900 ca         1 73A       0.194900
      8 C17          3.9070     5.1110    -0.8410 c3         1 73A      -0.109100
      9 C4          -0.9900    -1.0740    -0.0080 cc         1 73A       0.005600
     10 N3           1.7010     0.2890    -2.5030 n1         1 73A      -0.450000
     11 C5           0.2760    -1.7630     0.2340 ca         1 73A      -0.038800
     12 C6           0.9660    -1.5800     1.4490 ca         1 73A      -0.093000
     13 C9           2.0610    -3.2390    -0.5370 ca         1 73A      -0.102500
     14 N4           3.2210     2.7510    -0.5820 ns         1 73A      -0.493900
     15 C11         -1.1070     0.3090     0.0590 cd         1 73A      -0.070100
     16 C14          1.4140     0.8200    -1.5050 cg         1 73A       0.283700
     17 C12         -0.0530     1.2730     0.3900 cf         1 73A      -0.038000
     18 O            1.8870     3.2260     1.1920 o          1 73A      -0.609100
     19 C15          2.0800     2.5670     0.1780 c          1 73A       0.620300
     20 C16          4.2770     3.7200    -0.2910 c3         1 73A       0.113700
     21 C18          5.6240     3.2160    -0.8410 c3         1 73A      -0.109100
     22 N5          -2.4500     0.6310    -0.2430 na         1 73A      -0.171400
     23 C19         -3.0770     1.9640    -0.3000 c3         1 73A       0.070600
     24 C20         -3.7560     2.3600     1.0240 c3         1 73A       0.139600
     25 C21         -4.9870     4.1850     2.0250 c3         1 73A       0.147900
     26 C           -2.7450    -2.9120    -0.5370 ca         1 73A       0.447900
     27 N           -1.9760    -4.0120    -0.3670 nv         1 73A      -1.069900
     28 C10          0.8310    -2.5950    -0.7570 ca         1 73A      -0.093000
     29 H1           2.7270    -2.0810     2.6080 ha         1 73A       0.133000
     30 H2          -5.8530    -2.2190    -1.2490 h5         1 73A       0.047100
     31 H3           3.7890     5.0810    -1.9310 hc         1 73A       0.044033
     32 H4           2.9660     5.4640    -0.4020 hc         1 73A       0.044033
     33 H5           4.6880     5.8420    -0.5990 hc         1 73A       0.044033
     34 H6           0.5470    -0.9410     2.2230 ha         1 73A       0.127500
     35 H7           2.4880    -3.8770    -1.3070 ha         1 73A       0.133000
     36 H8           3.3190     2.1720    -1.4080 hn         1 73A       0.322500
     37 H9          -0.2650     1.8780     1.2730 ha         1 73A       0.216000
     38 H10          4.3770     3.8020     0.8010 h1         1 73A       0.075700
     39 H11          5.5880     3.1130    -1.9320 hc         1 73A       0.044033
     40 H12          6.4290     3.9150    -0.5870 hc         1 73A       0.044033
     41 H13          5.8750     2.2390    -0.4090 hc         1 73A       0.044033
     42 H14         -2.3080     2.7060    -0.5470 h1         1 73A       0.082700
     43 H15         -3.8210     1.9740    -1.1050 h1         1 73A       0.082700
     44 H16         -3.0140     2.3480     1.8330 h1         1 73A       0.034700
     45 H17         -4.5420     1.6310     1.2620 h1         1 73A       0.034700
     46 H18         -5.3840     5.1890     1.8270 h1         1 73A       0.032367
     47 H19         -5.8270     3.5350     2.3050 h1         1 73A       0.032367
     48 H20         -4.2990     4.2510     2.8770 h1         1 73A       0.032367
     49 H21         -2.4450    -4.9070    -0.2520 hn         1 73A       0.504500
     50 H22         -1.0830    -3.8990     0.1010 hn         1 73A       0.504500
     51 H23          0.3140    -2.7290    -1.7050 ha         1 73A       0.127500
     52 Cl           4.2840    -3.8540     0.9500 cl         1 73A      -0.199000
     53 O1          -4.3130     3.6760     0.8610 os         1 73A      -0.452000
     54 C13          1.1040     1.5250    -0.2970 ce         1 73A      -0.088900
@<TRIPOS>BOND
     1     1     3 ar  
     2     1     4 ar  
     3     1    22 1   
     4     2     7 ar  
     5     2    26 ar  
     6     3     7 ar  
     7     4     9 1   
     8     4    26 ar  
     9     5     6 ar  
    10     5    13 ar  
    11     5    52 1   
    12     6    12 ar  
    13     6    29 1   
    14     7    30 1   
    15     8    20 1   
    16     8    31 1   
    17     8    32 1   
    18     8    33 1   
    19     9    11 1   
    20     9    15 2   
    21    10    16 3   
    22    11    12 ar  
    23    11    28 ar  
    24    12    34 1   
    25    13    28 ar  
    26    13    35 1   
    27    14    19 1   
    28    14    20 1   
    29    14    36 1   
    30    15    17 1   
    31    15    22 1   
    32    16    54 1   
    33    17    37 1   
    34    17    54 2   
    35    18    19 2   
    36    19    54 1   
    37    20    21 1   
    38    20    38 1   
    39    21    39 1   
    40    21    40 1   
    41    21    41 1   
    42    22    23 1   
    43    23    24 1   
    44    23    42 1   
    45    23    43 1   
    46    24    44 1   
    47    24    45 1   
    48    24    53 1   
    49    25    46 1   
    50    25    47 1   
    51    25    48 1   
    52    25    53 1   
    53    26    27 1   
    54    27    49 1   
    55    27    50 1   
    56    28    51 1   
@<TRIPOS>SUBSTRUCTURE
     1 73A         1 TEMP              0 ****  ****    0 ROOT
