@<TRIPOS>MOLECULE
73A
   54    56     1     0     0
SMALL
abcg2


@<TRIPOS>ATOM
      1 C2          -3.1310    -0.5590    -0.4630 ca         1 73A       0.166500
      2 N1          -4.1110    -3.0240    -0.6430 nb         1 73A      -0.309000
      3 N2          -4.4440    -0.6660    -0.6670 nb         1 73A      -0.238000
      4 C3          -2.2200    -1.6200    -0.3710 ca         1 73A      -0.262800
      5 C8           2.7060    -3.1420     0.5010 ca         1 73A       0.122000
      6 C7           2.2720    -2.2100     1.4310 ca         1 73A      -0.102500
      7 C1          -4.8410    -1.9190    -0.7580 ca         1 73A       0.194900
      8 C17          3.7650     5.0700    -1.0300 c3         1 73A      -0.109100
      9 C4          -0.9290    -1.0540    -0.1740 cc         1 73A       0.005600
     10 N3           2.1110    -0.0750    -2.1140 n1         1 73A      -0.450000
     11 C5           0.3250    -1.7780     0.0630 ca         1 73A      -0.038800
     12 C6           1.0810    -1.5390     1.2100 ca         1 73A      -0.093000
     13 C9           1.9710    -3.4050    -0.6440 ca         1 73A      -0.102500
     14 N4           3.1300     2.7660    -0.4460 ns         1 73A      -0.493900
     15 C11         -1.1130     0.3180    -0.1450 cd         1 73A      -0.070100
     16 C14          1.6350     0.5930    -1.3030 cg         1 73A       0.283700
     17 C12         -0.1820     1.3860     0.0910 cf         1 73A      -0.038000
     18 O            1.4610     3.4590     0.9110 o          1 73A      -0.609100
     19 C15          1.9110     2.6690     0.0930 c          1 73A       0.620300
     20 C16          4.0490     3.8570    -0.1510 c3         1 73A       0.113700
     21 C18          5.4760     3.3590    -0.3200 c3         1 73A      -0.109100
     22 N5          -2.4590     0.6020    -0.3110 na         1 73A      -0.171400
     23 C19         -3.0670     1.9150    -0.3630 c3         1 73A       0.070600
     24 C20         -3.5470     2.3540     1.0120 c3         1 73A       0.139600
     25 C21         -4.6170     4.1300     2.0880 c3         1 73A       0.147900
     26 C           -2.7980    -2.9130    -0.4280 ca         1 73A       0.447900
     27 N           -2.0980    -4.0390    -0.2800 nv         1 73A      -1.069900
     28 C10          0.7880    -2.7160    -0.8580 ca         1 73A      -0.093000
     29 H1           2.8460    -2.0150     2.3260 ha         1 73A       0.133000
     30 H2          -5.9000    -2.0760    -0.9380 h5         1 73A       0.047100
     31 H3           3.9160     4.8300    -2.0840 hc         1 73A       0.044033
     32 H4           2.7430     5.4230    -0.9000 hc         1 73A       0.044033
     33 H5           4.4380     5.8890    -0.7720 hc         1 73A       0.044033
     34 H6           0.7350    -0.8260     1.9470 ha         1 73A       0.127500
     35 H7           2.3190    -4.1270    -1.3700 ha         1 73A       0.133000
     36 H8           3.4160     2.1150    -1.1610 hn         1 73A       0.322500
     37 H9          -0.5320     2.2140     0.7000 ha         1 73A       0.216000
     38 H10          3.8940     4.1340     0.8930 h1         1 73A       0.075700
     39 H11          5.6650     3.0500    -1.3510 hc         1 73A       0.044033
     40 H12          6.1810     4.1550    -0.0800 hc         1 73A       0.044033
     41 H13          5.6860     2.5150     0.3360 hc         1 73A       0.044033
     42 H14         -2.3440     2.6240    -0.7680 h1         1 73A       0.082700
     43 H15         -3.9060     1.8730    -1.0580 h1         1 73A       0.082700
     44 H16         -2.7090     2.3560     1.7260 h1         1 73A       0.034700
     45 H17         -4.2850     1.6340     1.3910 h1         1 73A       0.034700
     46 H18         -5.0350     5.1160     1.8940 h1         1 73A       0.032367
     47 H19         -5.4090     3.4890     2.4900 h1         1 73A       0.032367
     48 H20         -3.8390     4.2280     2.8540 h1         1 73A       0.032367
     49 H21         -2.5790    -4.9220    -0.2770 hn         1 73A       0.504500
     50 H22         -1.1270    -4.0330    -0.0200 hn         1 73A       0.504500
     51 H23          0.2360    -2.8970    -1.7720 ha         1 73A       0.127500
     52 CL           4.1900    -3.9920     0.7760 cl         1 73A      -0.199000
     53 O1          -4.1030     3.6320     0.8770 os         1 73A      -0.452000
     54 C13          1.0850     1.4970    -0.3550 ce         1 73A      -0.088900
@<TRIPOS>BOND
     1     1     3 ar  
     2     1     4 ar  
     3     1    22 1   
     4     2     7 ar  
     5     2    26 ar  
     6     3     7 ar  
     7     4     9 1   
     8     4    26 ar  
     9     5     6 ar  
    10     5    13 ar  
    11     5    52 1   
    12     6    12 ar  
    13     6    29 1   
    14     7    30 1   
    15     8    20 1   
    16     8    31 1   
    17     8    32 1   
    18     8    33 1   
    19     9    11 1   
    20     9    15 2   
    21    10    16 3   
    22    11    12 ar  
    23    11    28 ar  
    24    12    34 1   
    25    13    28 ar  
    26    13    35 1   
    27    14    19 1   
    28    14    20 1   
    29    14    36 1   
    30    15    17 1   
    31    15    22 1   
    32    16    54 1   
    33    17    37 1   
    34    17    54 2   
    35    18    19 2   
    36    19    54 1   
    37    20    21 1   
    38    20    38 1   
    39    21    39 1   
    40    21    40 1   
    41    21    41 1   
    42    22    23 1   
    43    23    24 1   
    44    23    42 1   
    45    23    43 1   
    46    24    44 1   
    47    24    45 1   
    48    24    53 1   
    49    25    46 1   
    50    25    47 1   
    51    25    48 1   
    52    25    53 1   
    53    26    27 1   
    54    27    49 1   
    55    27    50 1   
    56    28    51 1   
@<TRIPOS>SUBSTRUCTURE
     1 73A         1 TEMP              0 ****  ****    0 ROOT
