@<TRIPOS>MOLECULE
73B
   53    56     1     0     0
SMALL
abcg2


@<TRIPOS>ATOM
      1 C1          14.9370     6.2080     9.9440 c3         1 73B      -0.101100
      2 C2          13.9330     5.2850     9.2640 c6         1 73B       0.119700
      3 C3          14.6130     4.3270     8.2720 c6         1 73B      -0.093400
      4 C4          13.8880     2.9810     8.1940 c6         1 73B       0.281800
      5 N1          14.4530     2.1640     7.1450 nu         1 73B      -0.960200
      6 C5          13.8570     1.0110     6.6750 ca         1 73B       0.323000
      7 C6          14.5910     0.1470     5.8430 ca         1 73B      -0.175000
      8 C7          14.0250    -1.0070     5.3290 ca         1 73B      -0.056000
      9 C8          12.7070    -1.3210     5.6380 ca         1 73B       0.078000
     10 CL1         11.9870    -2.7890     4.9930 cl         1 73B      -0.226000
     11 C9          11.9600    -0.4880     6.4570 ca         1 73B      -0.056000
     12 C10         12.5300     0.6670     6.9770 ca         1 73B      -0.175000
     13 C11         13.9550     2.3860     9.5870 ca         1 73B      -0.139300
     14 C12         14.4140     1.1130     9.8770 ca         1 73B      -0.090000
     15 C13         14.5010     0.6520    11.1960 cp         1 73B       0.014000
     16 C14         14.1550     1.5320    12.2270 ca         1 73B      -0.100000
     17 C15         13.7230     2.8220    11.9510 ca         1 73B      -0.126000
     18 C16         13.5890     3.2410    10.6310 ca         1 73B      -0.064000
     19 N2          13.1370     4.5360    10.2720 n          1 73B      -0.236400
     20 C17         11.9830     5.1060    10.7300 c          1 73B       0.605100
     21 C18         11.0510     4.2790    11.5840 c3         1 73B      -0.168100
     22 O1          11.6860     6.2640    10.4300 o          1 73B      -0.623100
     23 C19         14.9450    -0.7300    11.4790 cp         1 73B      -0.096000
     24 C20         14.4140    -1.4520    12.5540 ca         1 73B      -0.119000
     25 C21         14.8100    -2.7590    12.8010 ca         1 73B      -0.093500
     26 C22         15.7510    -3.3930    11.9890 ca         1 73B      -0.106600
     27 C23         16.2890    -2.6710    10.9220 ca         1 73B      -0.093500
     28 C24         15.8950    -1.3650    10.6700 ca         1 73B      -0.119000
     29 C25         16.1710    -4.8370    12.2520 c          1 73B       0.702600
     30 O2          17.0330    -5.3310    11.4790 o          1 73B      -0.718000
     31 O3          15.6220    -5.4260    13.2190 o          1 73B      -0.718000
     32 H1          14.4280     6.9290    10.5830 hc         1 73B       0.043700
     33 H2          15.6340     5.6270    10.5530 hc         1 73B       0.043700
     34 H3          15.5120     6.7530     9.1930 hc         1 73B       0.043700
     35 H4          13.2050     5.8860     8.7230 h1         1 73B       0.073700
     36 H5          15.6470     4.1390     8.5760 hc         1 73B       0.054200
     37 H6          14.6390     4.7980     7.2890 hc         1 73B       0.054200
     38 H7          12.8410     3.1800     7.9460 h1         1 73B       0.072700
     39 H8          15.4600     2.1880     7.0770 hn         1 73B       0.472000
     40 H9          15.6200     0.3910     5.6040 ha         1 73B       0.116500
     41 H10         14.6070    -1.6600     4.6930 ha         1 73B       0.124500
     42 H11         10.9370    -0.7390     6.7020 ha         1 73B       0.124500
     43 H12         11.9360     1.2900     7.6290 ha         1 73B       0.116500
     44 H13         14.6830     0.4540     9.0640 ha         1 73B       0.128000
     45 H14         14.2550     1.2200    13.2580 ha         1 73B       0.123000
     46 H15         13.4970     3.5020    12.7600 ha         1 73B       0.111000
     47 H16         10.0430     4.6540    11.4210 hc         1 73B       0.064033
     48 H17         11.0950     3.2160    11.3560 hc         1 73B       0.064033
     49 H18         11.2950     4.4110    12.6390 hc         1 73B       0.064033
     50 H19         13.6630    -0.9950    13.1870 ha         1 73B       0.086500
     51 H20         14.3800    -3.3100    13.6260 ha         1 73B       0.132000
     52 H21         17.0280    -3.1470    10.2920 ha         1 73B       0.132000
     53 H22         16.3410    -0.8260     9.8440 ha         1 73B       0.086500
@<TRIPOS>BOND
     1     1     2 1   
     2     1    32 1   
     3     1    33 1   
     4     1    34 1   
     5     2     3 1   
     6     2    19 1   
     7     2    35 1   
     8     3     4 1   
     9     3    36 1   
    10     3    37 1   
    11     4     5 1   
    12     4    13 1   
    13     4    38 1   
    14     5     6 1   
    15     5    39 1   
    16     6     7 ar  
    17     6    12 ar  
    18     7     8 ar  
    19     7    40 1   
    20     8     9 ar  
    21     8    41 1   
    22     9    10 1   
    23     9    11 ar  
    24    11    12 ar  
    25    11    42 1   
    26    12    43 1   
    27    13    14 ar  
    28    13    18 ar  
    29    14    15 ar  
    30    14    44 1   
    31    15    16 ar  
    32    15    23 1   
    33    16    17 ar  
    34    16    45 1   
    35    17    18 ar  
    36    17    46 1   
    37    18    19 1   
    38    19    20 1   
    39    20    21 1   
    40    20    22 2   
    41    21    47 1   
    42    21    48 1   
    43    21    49 1   
    44    23    24 ar  
    45    23    28 ar  
    46    24    25 ar  
    47    24    50 1   
    48    25    26 ar  
    49    25    51 1   
    50    26    27 ar  
    51    26    29 1   
    52    27    28 ar  
    53    27    52 1   
    54    28    53 1   
    55    29    30 1   
    56    29    31 1   
@<TRIPOS>SUBSTRUCTURE
     1 73B         1 TEMP              0 ****  ****    0 ROOT
