@<TRIPOS>MOLECULE
73B
   53    56     1     0     0
SMALL
No Charge or Current Charge


@<TRIPOS>ATOM
      1 C1          14.7490     6.4240     9.5530 c3         1 73B      -0.101100
      2 C2          13.7860     5.2670     9.1690 c6         1 73B       0.119700
      3 C3          14.5120     4.2880     8.1990 c6         1 73B      -0.093400
      4 C4          13.8810     2.8820     8.2410 c6         1 73B       0.281800
      5 N1          14.5580     2.0320     7.2450 nu         1 73B      -0.960200
      6 C5          13.9780     0.9750     6.5430 ca         1 73B       0.323000
      7 C6          14.6480     0.4650     5.4190 ca         1 73B      -0.175000
      8 C7          14.1010    -0.6040     4.6860 ca         1 73B      -0.056000
      9 C8          12.8770    -1.1690     5.0800 ca         1 73B       0.078000
     10 Cl1         12.1910    -2.5070     4.1670 cl         1 73B      -0.226000
     11 C9          12.2020    -0.6670     6.2050 ca         1 73B      -0.056000
     12 C10         12.7520     0.4030     6.9350 ca         1 73B      -0.175000
     13 C11         14.0040     2.3650     9.6850 ca         1 73B      -0.139300
     14 C12         14.3630     1.0340     9.9960 ca         1 73B      -0.090000
     15 C13         14.4890     0.5940    11.3350 cp         1 73B       0.014000
     16 C14         14.2370     1.5340    12.3610 ca         1 73B      -0.100000
     17 C15         13.8740     2.8560    12.0610 ca         1 73B      -0.126000
     18 C16         13.7890     3.2960    10.7260 ca         1 73B      -0.064000
     19 N2          13.2240     4.5840    10.3780 n          1 73B      -0.236400
     20 C17         12.0730     5.1580    10.9950 c          1 73B       0.605100
     21 C18         11.1930     4.3100    11.9230 c3         1 73B      -0.168100
     22 O1          11.7210     6.3050    10.7390 o          1 73B      -0.623100
     23 C19         14.8710    -0.8210    11.6540 cp         1 73B      -0.096000
     24 C20         14.3450    -1.4860    12.7880 ca         1 73B      -0.119000
     25 C21         14.7000    -2.8120    13.0880 ca         1 73B      -0.093500
     26 C22         15.5980    -3.5260    12.2620 ca         1 73B      -0.106600
     27 C23         16.1280    -2.8690    11.1270 ca         1 73B      -0.093500
     28 C24         15.7690    -1.5430    10.8310 ca         1 73B      -0.119000
     29 C25         15.9850    -4.9620    12.5850 c          1 73B       0.702600
     30 O2          16.7660    -5.5410    11.8420 o          1 73B      -0.718000
     31 O3          15.5030    -5.4910    13.5770 o          1 73B      -0.718000
     32 H1          14.2420     7.1820    10.1610 hc         1 73B       0.043700
     33 H2          15.6040     6.0540    10.1310 hc         1 73B       0.043700
     34 H3          15.1390     6.9270     8.6600 hc         1 73B       0.043700
     35 H4          12.9460     5.7030     8.6090 h1         1 73B       0.073700
     36 H5          15.5720     4.2050     8.4750 hc         1 73B       0.054200
     37 H6          14.4840     4.6940     7.1790 hc         1 73B       0.054200
     38 H7          12.8130     2.9890     7.9890 h1         1 73B       0.072700
     39 H8          15.4700     2.3390     6.9080 hn         1 73B       0.472000
     40 H9          15.5960     0.8960     5.1100 ha         1 73B       0.116500
     41 H10         14.6240    -0.9950     3.8160 ha         1 73B       0.124500
     42 H11         11.2560    -1.1080     6.5110 ha         1 73B       0.124500
     43 H12         12.2220     0.7720     7.8070 ha         1 73B       0.116500
     44 H13         14.5360     0.3210     9.1960 ha         1 73B       0.128000
     45 H14         14.3300     1.2380    13.4030 ha         1 73B       0.123000
     46 H15         13.6990     3.5490    12.8800 ha         1 73B       0.111000
     47 H16         10.1690     4.6960    11.9710 hc         1 73B       0.064033
     48 H17         11.2180     3.2550    11.6310 hc         1 73B       0.064033
     49 H18         11.6200     4.3340    12.9300 hc         1 73B       0.064033
     50 H19         13.6410    -0.9750    13.4400 ha         1 73B       0.086500
     51 H20         14.2700    -3.2870    13.9670 ha         1 73B       0.132000
     52 H21         16.8250    -3.3850    10.4700 ha         1 73B       0.132000
     53 H22         16.2080    -1.0670     9.9570 ha         1 73B       0.086500
@<TRIPOS>BOND
     1     1     2 1   
     2     1    32 1   
     3     1    33 1   
     4     1    34 1   
     5     2     3 1   
     6     2    19 1   
     7     2    35 1   
     8     3     4 1   
     9     3    36 1   
    10     3    37 1   
    11     4     5 1   
    12     4    13 1   
    13     4    38 1   
    14     5     6 1   
    15     5    39 1   
    16     6     7 ar  
    17     6    12 ar  
    18     7     8 ar  
    19     7    40 1   
    20     8     9 ar  
    21     8    41 1   
    22     9    10 1   
    23     9    11 ar  
    24    11    12 ar  
    25    11    42 1   
    26    12    43 1   
    27    13    14 ar  
    28    13    18 ar  
    29    14    15 ar  
    30    14    44 1   
    31    15    16 ar  
    32    15    23 1   
    33    16    17 ar  
    34    16    45 1   
    35    17    18 ar  
    36    17    46 1   
    37    18    19 1   
    38    19    20 1   
    39    20    21 1   
    40    20    22 2   
    41    21    47 1   
    42    21    48 1   
    43    21    49 1   
    44    23    24 ar  
    45    23    28 ar  
    46    24    25 ar  
    47    24    50 1   
    48    25    26 ar  
    49    25    51 1   
    50    26    27 ar  
    51    26    29 1   
    52    27    28 ar  
    53    27    52 1   
    54    28    53 1   
    55    29    30 1   
    56    29    31 1   
@<TRIPOS>SUBSTRUCTURE
     1 73B         1 TEMP              0 ****  ****    0 ROOT
