@<TRIPOS>MOLECULE
73C
   25    24     1     0     0
SMALL
bcc


@<TRIPOS>ATOM
      1 N           19.4980    16.2930    60.2710 n8         1 73C      -0.870800
      2 CA          18.5250    17.2540    59.7740 c3         1 73C       0.006500
      3 C           18.7710    18.7380    60.1830 c          1 73C       0.905600
      4 O           17.9330    19.5640    59.7660 o          1 73C      -0.837300
      5 CB          17.1210    16.8350    60.1820 c3         1 73C       0.147400
      6 OG          16.8050    15.5820    59.6170 os         1 73C      -0.402600
      7 C1          15.4510    15.2210    59.7270 c3         1 73C       0.143400
      8 C2          15.0130    14.8080    61.1250 c3         1 73C      -0.116400
      9 C3          13.5800    14.2900    61.1330 c3         1 73C      -0.073400
     10 C4          13.0860    13.9510    62.5320 c3         1 73C      -0.086100
     11 O1          19.7810    18.9800    60.8700 o          1 73C      -0.837300
     12 H1          20.4170    16.5790    59.9560 hn         1 73C       0.321800
     13 H2          19.5440    16.3850    61.2810 hn         1 73C       0.321800
     14 H4          18.5650    17.2240    58.6770 h1         1 73C       0.048700
     15 H5          16.4060    17.5940    59.8460 h1         1 73C       0.024200
     16 H6          17.0610    16.8020    61.2810 h1         1 73C       0.024200
     17 H7          14.8030    16.0370    59.3700 h1         1 73C       0.023700
     18 H8          15.3040    14.3780    59.0450 h1         1 73C       0.023700
     19 H9          15.6860    14.0290    61.4980 hc         1 73C       0.047700
     20 H10         12.9180    15.0370    60.6820 hc         1 73C       0.030200
     21 H11         12.0610    13.5800    62.5160 hc         1 73C       0.026033
     22 H12         13.7090    13.1840    62.9940 hc         1 73C       0.026033
     23 H13         13.1120    14.8290    63.1790 hc         1 73C       0.026033
     24 H3          15.0950    15.6510    61.8180 hc         1 73C       0.047700
     25 H15         13.5130    13.4040    60.4940 hc         1 73C       0.030200
@<TRIPOS>BOND
     1     1     2 1   
     2     1    12 1   
     3     1    13 1   
     4     2     3 1   
     5     2     5 1   
     6     2    14 1   
     7     3     4 1   
     8     3    11 1   
     9     5     6 1   
    10     5    15 1   
    11     5    16 1   
    12     6     7 1   
    13     7     8 1   
    14     7    17 1   
    15     7    18 1   
    16     8     9 1   
    17     8    19 1   
    18     8    24 1   
    19     9    10 1   
    20     9    20 1   
    21     9    25 1   
    22    10    21 1   
    23    10    22 1   
    24    10    23 1   
@<TRIPOS>SUBSTRUCTURE
     1 73C         1 TEMP              0 ****  ****    0 ROOT
