@<TRIPOS>MOLECULE
73D
   22    23     1     0     0
SMALL
No Charge or Current Charge


@<TRIPOS>ATOM
      1 O11         -2.6330     1.3040    -0.3950 o          1 73D      -0.471000
      2 C8          -1.4770     0.9000    -0.2880 c          1 73D       0.461000
      3 C9          -0.1800     1.7480    -0.0150 c          1 73D       0.514700
      4 O12         -0.0860     2.9650     0.1220 o          1 73D      -0.445100
      5 C1           0.9190     0.7420     0.0380 ca         1 73D      -0.246600
      6 C2           2.2970     0.9360     0.2100 ca         1 73D       0.002000
      7 C3           3.1310    -0.2000     0.1640 ca         1 73D      -0.159000
      8 C4           2.5870    -1.4870    -0.0680 ca         1 73D      -0.045000
      9 C5           1.1970    -1.6560    -0.2430 ca         1 73D      -0.161000
     10 C6           0.3730    -0.5270    -0.1510 ca         1 73D       0.108600
     11 N7          -1.0360    -0.4320    -0.3630 n          1 73D      -0.315000
     12 C10         -1.9430    -1.5880    -0.4930 c3         1 73D       0.109000
     13 C11         -2.1930    -2.3030     0.8460 c3         1 73D      -0.116100
     14 H3           2.7120     1.9310     0.3620 ha         1 73D       0.133000
     15 H4           4.2040    -0.0840     0.2920 ha         1 73D       0.124000
     16 H5           3.2470    -2.3500    -0.1190 ha         1 73D       0.117000
     17 H6           0.7810    -2.6410    -0.4370 ha         1 73D       0.128000
     18 H7          -2.9030    -1.2530    -0.9080 h1         1 73D       0.061200
     19 H8          -1.5080    -2.2980    -1.2080 h1         1 73D       0.061200
     20 H9          -1.2540    -2.6780     1.2690 hc         1 73D       0.047033
     21 H10         -2.6490    -1.6160     1.5690 hc         1 73D       0.047033
     22 H11         -2.8710    -3.1530     0.7040 hc         1 73D       0.047033
@<TRIPOS>BOND
     1     1     2 2   
     2     2     3 1   
     3     2    11 1   
     4     3     4 2   
     5     3     5 1   
     6     5     6 ar  
     7     5    10 ar  
     8     6     7 ar  
     9     6    14 1   
    10     7     8 ar  
    11     7    15 1   
    12     8     9 ar  
    13     8    16 1   
    14     9    10 ar  
    15     9    17 1   
    16    10    11 1   
    17    11    12 1   
    18    12    13 1   
    19    12    18 1   
    20    12    19 1   
    21    13    20 1   
    22    13    21 1   
    23    13    22 1   
@<TRIPOS>SUBSTRUCTURE
     1 73D         1 TEMP              0 ****  ****    0 ROOT
