@<TRIPOS>MOLECULE
73D
   22    23     1     0     0
SMALL
abcg2


@<TRIPOS>ATOM
      1 O11         -2.5710     1.2530    -0.2680 o          1 73D      -0.471000
      2 C8          -1.4390     0.8410    -0.2150 c          1 73D       0.461000
      3 C9          -0.1700     1.7000     0.0070 c          1 73D       0.514700
      4 O12         -0.1880     2.8960     0.1400 o          1 73D      -0.445100
      5 C1           0.9300     0.7500     0.0130 ca         1 73D      -0.246600
      6 C2           2.2950     0.9240     0.1700 ca         1 73D       0.002000
      7 C3           3.1110    -0.1980     0.1250 ca         1 73D      -0.159000
      8 C4           2.5500    -1.4560    -0.0740 ca         1 73D      -0.045000
      9 C5           1.1770    -1.6420    -0.2330 ca         1 73D      -0.161000
     10 C6           0.3760    -0.5180    -0.1880 ca         1 73D       0.108600
     11 N7          -1.0120    -0.4430    -0.3330 n          1 73D      -0.315000
     12 C10         -1.8840    -1.5910    -0.4920 c3         1 73D       0.109000
     13 C11         -2.2140    -2.2610     0.8310 c3         1 73D      -0.116100
     14 H3           2.7090     1.9120     0.3250 ha         1 73D       0.133000
     15 H4           4.1810    -0.0990     0.2410 ha         1 73D       0.124000
     16 H5           3.1970    -2.3230    -0.1070 ha         1 73D       0.117000
     17 H6           0.7740    -2.6340    -0.3880 ha         1 73D       0.128000
     18 H7          -2.7910    -1.2470    -0.9870 h1         1 73D       0.061200
     19 H8          -1.4010    -2.2920    -1.1740 h1         1 73D       0.061200
     20 H9          -1.3180    -2.6200     1.3370 hc         1 73D       0.047033
     21 H10         -2.7320    -1.5740     1.5010 hc         1 73D       0.047033
     22 H11         -2.8640    -3.1180     0.6560 hc         1 73D       0.047033
@<TRIPOS>BOND
     1     1     2 2   
     2     2     3 1   
     3     2    11 1   
     4     3     4 2   
     5     3     5 1   
     6     5     6 ar  
     7     5    10 ar  
     8     6     7 ar  
     9     6    14 1   
    10     7     8 ar  
    11     7    15 1   
    12     8     9 ar  
    13     8    16 1   
    14     9    10 ar  
    15     9    17 1   
    16    10    11 1   
    17    11    12 1   
    18    12    13 1   
    19    12    18 1   
    20    12    19 1   
    21    13    20 1   
    22    13    21 1   
    23    13    22 1   
@<TRIPOS>SUBSTRUCTURE
     1 73D         1 TEMP              0 ****  ****    0 ROOT
