@<TRIPOS>MOLECULE
73E
   39    41     1     0     0
SMALL
abcg2


@<TRIPOS>ATOM
      1 O3          -3.9850     2.5270     0.0860 oh         1 73E      -0.665000
      2 C3          -3.2510     1.3830     0.4610 c6         1 73E       0.100300
      3 C4          -3.9830     0.1620    -0.0870 c6         1 73E       0.143300
      4 O4          -5.2530     0.0210     0.4970 oh         1 73E      -0.718000
      5 C2          -1.8230     1.4230    -0.0690 c6         1 73E       0.113300
      6 O2          -1.0620     2.4410     0.5310 oh         1 73E      -0.721000
      7 C1          -1.1430     0.0930     0.2550 c6         1 73E       0.154000
      8 O5          -1.8660    -0.9730    -0.3060 os         1 73E      -0.412000
      9 C5          -3.1750    -1.1000     0.2180 c6         1 73E       0.168300
     10 C6          -3.7950    -2.3350    -0.3990 c3         1 73E       0.172600
     11 O6          -3.0470    -3.4610    -0.0100 oh         1 73E      -0.711000
     12 C13          0.2400     0.0520    -0.2980 cc         1 73E       0.392800
     13 N5           1.3570    -0.0240     0.4550 na         1 73E      -0.481000
     14 C12          2.3920    -0.0240    -0.4180 cc         1 73E       0.447000
     15 N3           1.9160     0.0450    -1.6350 nd         1 73E      -0.360000
     16 N2           0.5680     0.0950    -1.5580 nd         1 73E      -0.337000
     17 C14          3.8040    -0.0880    -0.0540 ca         1 73E      -0.127500
     18 C7           4.7690    -0.1510    -1.0600 ca         1 73E      -0.084000
     19 C8           6.1140    -0.2110    -0.7350 ca         1 73E      -0.112500
     20 C9           6.5140    -0.2090     0.5960 ca         1 73E      -0.097000
     21 C10          5.5590    -0.1460     1.6010 ca         1 73E      -0.112500
     22 C11          4.2110    -0.0850     1.2800 ca         1 73E      -0.084000
     23 H1          -3.7930     3.2370     0.7060 ho         1 73E       0.454000
     24 H2          -3.2100     1.2900     1.5580 h1         1 73E       0.051700
     25 H3          -4.0600     0.2660    -1.1820 h1         1 73E       0.060700
     26 H4          -5.7480     0.8300     0.3290 ho         1 73E       0.524000
     27 H5          -1.8480     1.5340    -1.1610 h1         1 73E       0.080700
     28 H6          -1.2160     3.2640     0.0590 ho         1 73E       0.517000
     29 H7          -1.0830    -0.0110     1.3510 h1         1 73E       0.046700
     30 H8          -3.1270    -1.2300     1.3120 h1         1 73E       0.057700
     31 H9          -4.8350    -2.4030    -0.0640 h1         1 73E       0.038700
     32 H10         -3.8160    -2.2150    -1.4920 h1         1 73E       0.038700
     33 H11         -3.5080    -4.2450    -0.3220 ho         1 73E       0.505000
     34 H12          1.3950    -0.0790     1.4620 hn         1 73E       0.363000
     35 H13          4.4630    -0.1550    -2.0980 ha         1 73E       0.121500
     36 H14          6.8530    -0.2610    -1.5230 ha         1 73E       0.117000
     37 H15          7.5660    -0.2560     0.8470 ha         1 73E       0.116000
     38 H16          5.8600    -0.1420     2.6400 ha         1 73E       0.117000
     39 H17          3.4880    -0.0340     2.0840 ha         1 73E       0.121500
@<TRIPOS>BOND
     1     1     2 1   
     2     1    23 1   
     3     2     3 1   
     4     2     5 1   
     5     2    24 1   
     6     3     4 1   
     7     3     9 1   
     8     3    25 1   
     9     4    26 1   
    10     5     6 1   
    11     5     7 1   
    12     5    27 1   
    13     6    28 1   
    14     7     8 1   
    15     7    12 1   
    16     7    29 1   
    17     8     9 1   
    18     9    10 1   
    19     9    30 1   
    20    10    11 1   
    21    10    31 1   
    22    10    32 1   
    23    11    33 1   
    24    12    13 1   
    25    12    16 2   
    26    13    14 1   
    27    13    34 1   
    28    14    15 2   
    29    14    17 1   
    30    15    16 1   
    31    17    18 ar  
    32    17    22 ar  
    33    18    19 ar  
    34    18    35 1   
    35    19    20 ar  
    36    19    36 1   
    37    20    21 ar  
    38    20    37 1   
    39    21    22 ar  
    40    21    38 1   
    41    22    39 1   
@<TRIPOS>SUBSTRUCTURE
     1 73E         1 TEMP              0 ****  ****    0 ROOT
