@<TRIPOS>MOLECULE
73E
   39    41     1     0     0
SMALL
No Charge or Current Charge


@<TRIPOS>ATOM
      1 O3          -4.2870     1.7520    -1.5600 oh         1 73E      -0.665000
      2 C3          -3.5620     1.2340    -0.4320 c6         1 73E       0.100300
      3 C4          -3.7940    -0.2950    -0.2820 c6         1 73E       0.143300
      4 O4          -5.2010    -0.5490    -0.1280 oh         1 73E      -0.718000
      5 C2          -2.0450     1.5550    -0.5720 c6         1 73E       0.113300
      6 O2          -1.8780     2.9900    -0.6680 oh         1 73E      -0.721000
      7 C1          -1.2670     0.9320     0.6380 c6         1 73E       0.154000
      8 O5          -1.5580    -0.4910     0.7200 os         1 73E      -0.412000
      9 C5          -2.9570    -0.8210     0.9240 c6         1 73E       0.168300
     10 C6          -3.0750    -2.3700     1.1040 c3         1 73E       0.172600
     11 O6          -2.2470    -2.8870     2.1670 oh         1 73E      -0.711000
     12 C13          0.2290     1.1690     0.4980 cc         1 73E       0.392800
     13 N5           1.1600     0.1790     0.3210 na         1 73E      -0.481000
     14 C12          2.3810     0.7840     0.2320 cc         1 73E       0.447000
     15 N3           2.2090     2.0900     0.3460 nd         1 73E      -0.360000
     16 N2           0.8660     2.3310     0.5140 nd         1 73E      -0.337000
     17 C14          3.6600     0.0850     0.0390 ca         1 73E      -0.127500
     18 C7           4.8680     0.8140    -0.0390 ca         1 73E      -0.084000
     19 C8           6.0950     0.1530    -0.2240 ca         1 73E      -0.112500
     20 C9           6.1320    -1.2460    -0.3320 ca         1 73E      -0.097000
     21 C10          4.9410    -1.9830    -0.2560 ca         1 73E      -0.112500
     22 C11          3.7120    -1.3250    -0.0710 ca         1 73E      -0.084000
     23 H1          -3.8650     2.6230    -1.7480 ho         1 73E       0.454000
     24 H2          -3.9210     1.7220     0.4880 h1         1 73E       0.051700
     25 H3          -3.4250    -0.7910    -1.1940 h1         1 73E       0.060700
     26 H4          -5.6360     0.1040    -0.7300 ho         1 73E       0.524000
     27 H5          -1.6740     1.0720    -1.4900 h1         1 73E       0.080700
     28 H6          -0.9090     3.1830    -0.6520 ho         1 73E       0.517000
     29 H7          -1.6170     1.4030     1.5680 h1         1 73E       0.046700
     30 H8          -3.3040    -0.3400     1.8500 h1         1 73E       0.057700
     31 H9          -4.1290    -2.6130     1.2990 h1         1 73E       0.038700
     32 H10         -2.8040    -2.8450     0.1510 h1         1 73E       0.038700
     33 H11         -2.3600    -3.8660     2.1690 ho         1 73E       0.505000
     34 H12          0.9680    -0.8100     0.2780 hn         1 73E       0.363000
     35 H13          4.8630     1.9000     0.0420 ha         1 73E       0.121500
     36 H14          7.0170     0.7270    -0.2830 ha         1 73E       0.117000
     37 H15          7.0820    -1.7570    -0.4750 ha         1 73E       0.116000
     38 H16          4.9680    -3.0670    -0.3390 ha         1 73E       0.117000
     39 H17          2.8040    -1.9210    -0.0160 ha         1 73E       0.121500
@<TRIPOS>BOND
     1     1     2 1   
     2     1    23 1   
     3     2     3 1   
     4     2     5 1   
     5     2    24 1   
     6     3     4 1   
     7     3     9 1   
     8     3    25 1   
     9     4    26 1   
    10     5     6 1   
    11     5     7 1   
    12     5    27 1   
    13     6    28 1   
    14     7     8 1   
    15     7    12 1   
    16     7    29 1   
    17     8     9 1   
    18     9    10 1   
    19     9    30 1   
    20    10    11 1   
    21    10    31 1   
    22    10    32 1   
    23    11    33 1   
    24    12    13 1   
    25    12    16 2   
    26    13    14 1   
    27    13    34 1   
    28    14    15 2   
    29    14    17 1   
    30    15    16 1   
    31    17    18 ar  
    32    17    22 ar  
    33    18    19 ar  
    34    18    35 1   
    35    19    20 ar  
    36    19    36 1   
    37    20    21 ar  
    38    20    37 1   
    39    21    22 ar  
    40    21    38 1   
    41    22    39 1   
@<TRIPOS>SUBSTRUCTURE
     1 73E         1 TEMP              0 ****  ****    0 ROOT
