@<TRIPOS>MOLECULE
73F
   32    34     1     0     0
SMALL
abcg2


@<TRIPOS>ATOM
      1 O10          0.9750    -2.8410     0.3590 o          1 73F      -0.469000
      2 C8           1.4550    -1.7380     0.2800 c          1 73F       0.461000
      3 C9           2.9430    -1.4120    -0.0000 c          1 73F       0.514700
      4 O11          3.7930    -2.2500    -0.1510 o          1 73F      -0.444100
      5 C1           3.0110     0.0400    -0.0260 ca         1 73F      -0.245600
      6 C2           4.0690     0.9080    -0.2370 ca         1 73F       0.002000
      7 C3           3.8180     2.2730    -0.2000 ca         1 73F      -0.158000
      8 C4           2.5280     2.7360     0.0460 ca         1 73F      -0.045000
      9 C5           1.4570     1.8700     0.2620 ca         1 73F      -0.160000
     10 C6           1.7190     0.5150     0.2210 ca         1 73F       0.106600
     11 N7           0.8240    -0.5420     0.4130 n          1 73F      -0.314000
     12 C12         -0.5990    -0.3810     0.6180 c3         1 73F       0.109000
     13 C13         -1.3590    -0.1760    -0.6940 c3         1 73F      -0.055100
     14 C14         -2.8180     0.0630    -0.4240 ca         1 73F      -0.086300
     15 C15         -3.2990     1.3540    -0.2200 ca         1 73F      -0.105000
     16 C16         -4.6370     1.5760     0.0770 ca         1 73F      -0.108000
     17 C17         -5.5150     0.5040     0.1770 ca         1 73F      -0.107000
     18 C18         -5.0460    -0.7880    -0.0220 ca         1 73F      -0.108000
     19 C19         -3.7070    -1.0050    -0.3200 ca         1 73F      -0.105000
     20 H3           5.0640     0.5280    -0.4280 ha         1 73F       0.133000
     21 H4           4.6200     2.9790    -0.3630 ha         1 73F       0.124000
     22 H5           2.3450     3.8020     0.0730 ha         1 73F       0.117000
     23 H6           0.4690     2.2640     0.4550 ha         1 73F       0.128000
     24 H7          -0.9670    -1.2680     1.1330 h1         1 73F       0.066700
     25 H8          -0.7570     0.4620     1.2920 h1         1 73F       0.066700
     26 H9          -0.9350     0.6700    -1.2400 hc         1 73F       0.058700
     27 H10         -1.2290    -1.0580    -1.3250 hc         1 73F       0.058700
     28 H11         -2.6210     2.1960    -0.3000 ha         1 73F       0.112000
     29 H12         -4.9950     2.5860     0.2270 ha         1 73F       0.114000
     30 H13         -6.5590     0.6750     0.4050 ha         1 73F       0.114000
     31 H14         -5.7230    -1.6290     0.0530 ha         1 73F       0.114000
     32 H15         -3.3500    -2.0160    -0.4790 ha         1 73F       0.112000
@<TRIPOS>BOND
     1     1     2 2   
     2     2     3 1   
     3     2    11 1   
     4     3     4 2   
     5     3     5 1   
     6     5     6 ar  
     7     5    10 ar  
     8     6     7 ar  
     9     6    20 1   
    10     7     8 ar  
    11     7    21 1   
    12     8     9 ar  
    13     8    22 1   
    14     9    10 ar  
    15     9    23 1   
    16    10    11 1   
    17    11    12 1   
    18    12    13 1   
    19    12    24 1   
    20    12    25 1   
    21    13    14 1   
    22    13    26 1   
    23    13    27 1   
    24    14    15 ar  
    25    14    19 ar  
    26    15    16 ar  
    27    15    28 1   
    28    16    17 ar  
    29    16    29 1   
    30    17    18 ar  
    31    17    30 1   
    32    18    19 ar  
    33    18    31 1   
    34    19    32 1   
@<TRIPOS>SUBSTRUCTURE
     1 73F         1 TEMP              0 ****  ****    0 ROOT
