@<TRIPOS>MOLECULE
73F
   32    34     1     0     0
SMALL
No Charge or Current Charge


@<TRIPOS>ATOM
      1 O10          0.9580    -2.8900     0.3010 o          1 73F      -0.469000
      2 C8           1.4870    -1.7840     0.2240 c          1 73F       0.461000
      3 C9           3.0180    -1.4540     0.0810 c          1 73F       0.514700
      4 O11          3.9580    -2.2410    -0.0020 o          1 73F      -0.444100
      5 C1           3.0780     0.0350     0.0630 ca         1 73F      -0.245600
      6 C2           4.1850     0.8790    -0.1000 ca         1 73F       0.002000
      7 C3           3.9500     2.2690    -0.1470 ca         1 73F      -0.158000
      8 C4           2.6340     2.7820    -0.0560 ca         1 73F      -0.045000
      9 C5           1.5350     1.9110     0.1010 ca         1 73F      -0.160000
     10 C6           1.7850     0.5360     0.2030 ca         1 73F       0.106600
     11 N7           0.8440    -0.5360     0.2660 n          1 73F      -0.314000
     12 C12         -0.5920    -0.3670     0.5560 c3         1 73F       0.109000
     13 C13         -1.4300    -0.1210    -0.7130 c3         1 73F      -0.055100
     14 C14         -2.9030     0.0810    -0.3900 ca         1 73F      -0.086300
     15 C15         -3.4020     1.3730    -0.1310 ca         1 73F      -0.105000
     16 C16         -4.7610     1.5600     0.1750 ca         1 73F      -0.108000
     17 C17         -5.6290     0.4560     0.2230 ca         1 73F      -0.107000
     18 C18         -5.1370    -0.8350    -0.0320 ca         1 73F      -0.108000
     19 C19         -3.7770    -1.0220    -0.3380 ca         1 73F      -0.105000
     20 H3           5.1920     0.4770    -0.2010 ha         1 73F       0.133000
     21 H4           4.7870     2.9520    -0.2740 ha         1 73F       0.124000
     22 H5           2.4670     3.8560    -0.1180 ha         1 73F       0.117000
     23 H6           0.5220     2.3030     0.1500 ha         1 73F       0.128000
     24 H7          -0.9680    -1.2630     1.0690 h1         1 73F       0.066700
     25 H8          -0.7170     0.4790     1.2430 h1         1 73F       0.066700
     26 H9          -1.0340     0.7540    -1.2410 hc         1 73F       0.058700
     27 H10         -1.3030    -0.9720    -1.3930 hc         1 73F       0.058700
     28 H11         -2.7360     2.2330    -0.1640 ha         1 73F       0.112000
     29 H12         -5.1410     2.5600     0.3740 ha         1 73F       0.114000
     30 H13         -6.6820     0.6010     0.4600 ha         1 73F       0.114000
     31 H14         -5.8080    -1.6900     0.0060 ha         1 73F       0.114000
     32 H15         -3.4040    -2.0250    -0.5320 ha         1 73F       0.112000
@<TRIPOS>BOND
     1     1     2 2   
     2     2     3 1   
     3     2    11 1   
     4     3     4 2   
     5     3     5 1   
     6     5     6 ar  
     7     5    10 ar  
     8     6     7 ar  
     9     6    20 1   
    10     7     8 ar  
    11     7    21 1   
    12     8     9 ar  
    13     8    22 1   
    14     9    10 ar  
    15     9    23 1   
    16    10    11 1   
    17    11    12 1   
    18    12    13 1   
    19    12    24 1   
    20    12    25 1   
    21    13    14 1   
    22    13    26 1   
    23    13    27 1   
    24    14    15 ar  
    25    14    19 ar  
    26    15    16 ar  
    27    15    28 1   
    28    16    17 ar  
    29    16    29 1   
    30    17    18 ar  
    31    17    30 1   
    32    18    19 ar  
    33    18    31 1   
    34    19    32 1   
@<TRIPOS>SUBSTRUCTURE
     1 73F         1 TEMP              0 ****  ****    0 ROOT
