@<TRIPOS>MOLECULE
73G
   34    35     1     0     0
SMALL
bcc


@<TRIPOS>ATOM
      1 O10          1.3060    -2.7800     0.3630 o          1 73G      -0.538500
      2 C8           1.7560    -1.6650     0.2950 c          1 73G       0.610500
      3 C9           3.1540    -1.2690    -0.2370 c          1 73G       0.521700
      4 O11          3.9700    -2.0640    -0.6220 o          1 73G      -0.442100
      5 C1           3.1920     0.1820    -0.1510 ca         1 73G      -0.237600
      6 C2           4.1710     1.0960    -0.4980 ca         1 73G      -0.016000
      7 C3           3.9100     2.4460    -0.3080 ca         1 73G      -0.173000
      8 C4           2.6850     2.8470     0.2180 ca         1 73G      -0.062000
      9 C5           1.6910     1.9350     0.5690 ca         1 73G      -0.174000
     10 C6           1.9660     0.5970     0.3790 ca         1 73G       0.111600
     11 N7           1.1530    -0.5030     0.6690 n          1 73G      -0.370000
     12 CA          -0.2010    -0.4190     1.1250 c3         1 73G       0.041000
     13 C           -1.1580    -0.2100    -0.0330 c          1 73G       0.620100
     14 O           -0.8230    -0.2100    -1.1880 o          1 73G      -0.518000
     15 O12         -2.3890    -0.0510     0.4060 os         1 73G      -0.427900
     16 C13         -3.4470     0.0850    -0.5610 c3         1 73G       0.144400
     17 C14         -4.7470     0.2550     0.1930 c3         1 73G      -0.085400
     18 C15         -5.9340     0.3320    -0.7620 c3         1 73G      -0.075400
     19 C16         -7.2520     0.5270    -0.0260 c3         1 73G      -0.089100
     20 H3           5.1150     0.7610    -0.9090 ha         1 73G       0.151000
     21 H4           4.6530     3.1870    -0.5670 ha         1 73G       0.142000
     22 H5           2.4900     3.9020     0.3590 ha         1 73G       0.135000
     23 H6           0.7500     2.2840     0.9710 ha         1 73G       0.144000
     24 H7          -0.4630    -1.3450     1.6420 h1         1 73G       0.094200
     25 H8          -0.3080     0.3810     1.8600 h1         1 73G       0.094200
     26 H9          -3.2520     0.9470    -1.2030 h1         1 73G       0.051700
     27 H10         -3.4750    -0.8080    -1.1910 h1         1 73G       0.051700
     28 H11         -4.8870    -0.5850     0.8790 hc         1 73G       0.053700
     29 H12         -4.7050     1.1630     0.8020 hc         1 73G       0.053700
     30 H13         -5.7850     1.1530    -1.4700 hc         1 73G       0.041200
     31 H14         -5.9790    -0.5830    -1.3610 hc         1 73G       0.041200
     32 H15         -8.0930     0.5620    -0.7180 hc         1 73G       0.035033
     33 H16         -7.4340    -0.2870     0.6780 hc         1 73G       0.035033
     34 H17         -7.2520     1.4600     0.5410 hc         1 73G       0.035033
@<TRIPOS>BOND
     1     1     2 2   
     2     2     3 1   
     3     2    11 1   
     4     3     4 2   
     5     3     5 1   
     6     5     6 ar  
     7     5    10 ar  
     8     6     7 ar  
     9     6    20 1   
    10     7     8 ar  
    11     7    21 1   
    12     8     9 ar  
    13     8    22 1   
    14     9    10 ar  
    15     9    23 1   
    16    10    11 1   
    17    11    12 1   
    18    12    13 1   
    19    12    24 1   
    20    12    25 1   
    21    13    14 2   
    22    13    15 1   
    23    15    16 1   
    24    16    17 1   
    25    16    26 1   
    26    16    27 1   
    27    17    18 1   
    28    17    28 1   
    29    17    29 1   
    30    18    19 1   
    31    18    30 1   
    32    18    31 1   
    33    19    32 1   
    34    19    33 1   
    35    19    34 1   
@<TRIPOS>SUBSTRUCTURE
     1 73G         1 TEMP              0 ****  ****    0 ROOT
