@<TRIPOS>MOLECULE
73G
   34    35     1     0     0
SMALL
No Charge or Current Charge


@<TRIPOS>ATOM
      1 O10          1.8870    -3.0050     0.7140 o          1 73G      -0.463000
      2 C8           2.1440    -1.8200     0.5120 c          1 73G       0.468000
      3 C9           3.4800    -1.2020    -0.0390 c          1 73G       0.521700
      4 O11          4.5180    -1.7860    -0.3420 o          1 73G      -0.442100
      5 C1           3.2110     0.2630    -0.1100 ca         1 73G      -0.237600
      6 C2           4.0660     1.3100    -0.4830 ca         1 73G       0.002000
      7 C3           3.5680     2.6270    -0.3970 ca         1 73G      -0.155000
      8 C4           2.2560     2.8740     0.0720 ca         1 73G      -0.044000
      9 C5           1.4160     1.8040     0.4480 ca         1 73G      -0.156000
     10 C6           1.9010     0.4970     0.3080 ca         1 73G       0.111600
     11 N7           1.2830    -0.7270     0.7030 n          1 73G      -0.303000
     12 CA          -0.1520    -0.8610     1.0660 c3         1 73G       0.041000
     13 C           -1.1330    -0.6210    -0.0930 c          1 73G       0.571100
     14 O           -0.8330    -0.6910    -1.2790 o          1 73G      -0.469000
     15 O12         -2.3850    -0.3040     0.3690 os         1 73G      -0.451100
     16 C13         -3.4150    -0.0390    -0.5990 c3         1 73G       0.167600
     17 C14         -4.7040     0.2910     0.1760 c3         1 73G      -0.085400
     18 C15         -5.9030     0.6000    -0.7480 c3         1 73G      -0.075400
     19 C16         -7.1930     0.9300     0.0260 c3         1 73G      -0.089100
     20 H3           5.0840     1.1150    -0.8150 ha         1 73G       0.133000
     21 H4           4.2060     3.4620    -0.6780 ha         1 73G       0.124000
     22 H5           1.8960     3.8970     0.1530 ha         1 73G       0.117000
     23 H6           0.4160     1.9940     0.8280 ha         1 73G       0.126000
     24 H7          -0.3530    -1.8630     1.4640 h1         1 73G       0.094200
     25 H8          -0.3890    -0.1400     1.8560 h1         1 73G       0.094200
     26 H9          -3.1420     0.8110    -1.2380 h1         1 73G       0.051700
     27 H10         -3.5840    -0.9160    -1.2390 h1         1 73G       0.051700
     28 H11         -4.9570    -0.5560     0.8260 hc         1 73G       0.053700
     29 H12         -4.5180     1.1540     0.8280 hc         1 73G       0.053700
     30 H13         -5.6510     1.4460    -1.4000 hc         1 73G       0.041200
     31 H14         -6.0900    -0.2620    -1.4010 hc         1 73G       0.041200
     32 H15         -8.0130     1.1420    -0.6700 hc         1 73G       0.035033
     33 H16         -7.4910     0.0880     0.6620 hc         1 73G       0.035033
     34 H17         -7.0490     1.8120     0.6630 hc         1 73G       0.035033
@<TRIPOS>BOND
     1     1     2 2   
     2     2     3 1   
     3     2    11 1   
     4     3     4 2   
     5     3     5 1   
     6     5     6 ar  
     7     5    10 ar  
     8     6     7 ar  
     9     6    20 1   
    10     7     8 ar  
    11     7    21 1   
    12     8     9 ar  
    13     8    22 1   
    14     9    10 ar  
    15     9    23 1   
    16    10    11 1   
    17    11    12 1   
    18    12    13 1   
    19    12    24 1   
    20    12    25 1   
    21    13    14 2   
    22    13    15 1   
    23    15    16 1   
    24    16    17 1   
    25    16    26 1   
    26    16    27 1   
    27    17    18 1   
    28    17    28 1   
    29    17    29 1   
    30    18    19 1   
    31    18    30 1   
    32    18    31 1   
    33    19    32 1   
    34    19    33 1   
    35    19    34 1   
@<TRIPOS>SUBSTRUCTURE
     1 73G         1 TEMP              0 ****  ****    0 ROOT
