@<TRIPOS>MOLECULE
73H
   32    34     1     0     0
SMALL
abcg2


@<TRIPOS>ATOM
      1 O11          0.2650    -3.0820     0.3090 o          1 73H      -0.465000
      2 C8           0.8790    -2.0460     0.2620 c          1 73H       0.462000
      3 C9           2.3970    -1.9030    -0.0160 c          1 73H       0.512700
      4 O12          3.1350    -2.8310    -0.2030 o          1 73H      -0.434100
      5 C1           2.6480    -0.4680     0.0060 ca         1 73H      -0.222600
      6 C2           3.8140     0.2530    -0.1790 ca         1 73H      -0.040000
      7 C3           3.7150     1.6280    -0.0880 ca         1 73H       0.126000
      8 F10          4.8160     2.3740    -0.2610 f          1 73H      -0.171000
      9 C4           2.5130     2.2660     0.1750 ca         1 73H      -0.089000
     10 C5           1.3450     1.5320     0.3600 ca         1 73H      -0.133000
     11 C6           1.4280     0.1560     0.2730 ca         1 73H       0.090600
     12 N7           0.4050    -0.7840     0.4340 n          1 73H      -0.311000
     13 C13         -0.9860    -0.4510     0.6430 c3         1 73H       0.108000
     14 C14         -1.7110    -0.1310    -0.6670 c3         1 73H      -0.054100
     15 C15         -3.1410     0.2470    -0.4020 ca         1 73H      -0.087300
     16 C16         -3.4970     1.5780    -0.1950 ca         1 73H      -0.105000
     17 C17         -4.8100     1.9260     0.0910 ca         1 73H      -0.108000
     18 C18         -5.7880     0.9440     0.1760 ca         1 73H      -0.106000
     19 C19         -5.4440    -0.3860    -0.0250 ca         1 73H      -0.108000
     20 C20         -4.1290    -0.7300    -0.3110 ca         1 73H      -0.105000
     21 H3           4.7580    -0.2340    -0.3870 ha         1 73H       0.151000
     22 H4           2.4830     3.3460     0.2380 ha         1 73H       0.137000
     23 H5           0.4160     2.0450     0.5700 ha         1 73H       0.133000
     24 H6          -1.4610    -1.2950     1.1430 h1         1 73H       0.067700
     25 H7          -1.0420     0.3940     1.3320 h1         1 73H       0.067700
     26 H8          -1.1970     0.6830    -1.1850 hc         1 73H       0.058200
     27 H9          -1.6620    -1.0030    -1.3220 hc         1 73H       0.058200
     28 H10         -2.7400     2.3510    -0.2620 ha         1 73H       0.112000
     29 H11         -5.0700     2.9660     0.2430 ha         1 73H       0.114500
     30 H12         -6.8130     1.2140     0.3950 ha         1 73H       0.114000
     31 H13         -6.2000    -1.1580     0.0370 ha         1 73H       0.114500
     32 H14         -3.8700    -1.7710    -0.4710 ha         1 73H       0.112000
@<TRIPOS>BOND
     1     1     2 2   
     2     2     3 1   
     3     2    12 1   
     4     3     4 2   
     5     3     5 1   
     6     5     6 ar  
     7     5    11 ar  
     8     6     7 ar  
     9     6    21 1   
    10     7     8 1   
    11     7     9 ar  
    12     9    10 ar  
    13     9    22 1   
    14    10    11 ar  
    15    10    23 1   
    16    11    12 1   
    17    12    13 1   
    18    13    14 1   
    19    13    24 1   
    20    13    25 1   
    21    14    15 1   
    22    14    26 1   
    23    14    27 1   
    24    15    16 ar  
    25    15    20 ar  
    26    16    17 ar  
    27    16    28 1   
    28    17    18 ar  
    29    17    29 1   
    30    18    19 ar  
    31    18    30 1   
    32    19    20 ar  
    33    19    31 1   
    34    20    32 1   
@<TRIPOS>SUBSTRUCTURE
     1 73H         1 TEMP              0 ****  ****    0 ROOT
