@<TRIPOS>MOLECULE
73H
   32    34     1     0     0
SMALL
No Charge or Current Charge


@<TRIPOS>ATOM
      1 O11          0.2830    -3.1570     0.5250 o          1 73H      -0.465000
      2 C8           0.9220    -2.1170     0.3890 c          1 73H       0.462000
      3 C9           2.4470    -1.9600     0.0410 c          1 73H       0.512700
      4 O12          3.2780    -2.8470    -0.1390 o          1 73H      -0.434100
      5 C1           2.6660    -0.4850    -0.0180 ca         1 73H      -0.222600
      6 C2           3.8490     0.2350    -0.2500 ca         1 73H      -0.040000
      7 C3           3.7820     1.6420    -0.1990 ca         1 73H       0.126000
      8 F10          4.8980     2.3720    -0.4140 f          1 73H      -0.171000
      9 C4           2.5640     2.3000     0.0940 ca         1 73H      -0.089000
     10 C5           1.3860     1.5560     0.3290 ca         1 73H      -0.133000
     11 C6           1.4540     0.1580     0.2340 ca         1 73H       0.090600
     12 N7           0.4310    -0.8040     0.4930 n          1 73H      -0.311000
     13 C13         -0.9930    -0.4760     0.7000 c3         1 73H       0.108000
     14 C14         -1.7130    -0.0780    -0.6020 c3         1 73H      -0.054100
     15 C15         -3.1730     0.2770    -0.3580 ca         1 73H      -0.087300
     16 C16         -3.5410     1.6060    -0.0700 ca         1 73H      -0.105000
     17 C17         -4.8880     1.9330     0.1630 ca         1 73H      -0.108000
     18 C18         -5.8740     0.9330     0.1110 ca         1 73H      -0.106000
     19 C19         -5.5120    -0.3940    -0.1740 ca         1 73H      -0.108000
     20 C20         -4.1650    -0.7220    -0.4070 ca         1 73H      -0.105000
     21 H3           4.7910    -0.2710    -0.4520 ha         1 73H       0.151000
     22 H4           2.5390     3.3860     0.1450 ha         1 73H       0.137000
     23 H5           0.4530     2.0580     0.5690 ha         1 73H       0.133000
     24 H6          -1.5040    -1.3400     1.1460 h1         1 73H       0.067700
     25 H7          -1.0620     0.3500     1.4200 h1         1 73H       0.067700
     26 H8          -1.1900     0.7690    -1.0610 hc         1 73H       0.058200
     27 H9          -1.6390    -0.9060    -1.3170 hc         1 73H       0.058200
     28 H10         -2.7840     2.3860    -0.0250 ha         1 73H       0.112000
     29 H11         -5.1680     2.9610     0.3850 ha         1 73H       0.114500
     30 H12         -6.9170     1.1860     0.2920 ha         1 73H       0.114000
     31 H13         -6.2740    -1.1700    -0.2130 ha         1 73H       0.114500
     32 H14         -3.8920    -1.7520    -0.6240 ha         1 73H       0.112000
@<TRIPOS>BOND
     1     1     2 2   
     2     2     3 1   
     3     2    12 1   
     4     3     4 2   
     5     3     5 1   
     6     5     6 ar  
     7     5    11 ar  
     8     6     7 ar  
     9     6    21 1   
    10     7     8 1   
    11     7     9 ar  
    12     9    10 ar  
    13     9    22 1   
    14    10    11 ar  
    15    10    23 1   
    16    11    12 1   
    17    12    13 1   
    18    13    14 1   
    19    13    24 1   
    20    13    25 1   
    21    14    15 1   
    22    14    26 1   
    23    14    27 1   
    24    15    16 ar  
    25    15    20 ar  
    26    16    17 ar  
    27    16    28 1   
    28    17    18 ar  
    29    17    29 1   
    30    18    19 ar  
    31    18    30 1   
    32    19    20 ar  
    33    19    31 1   
    34    20    32 1   
@<TRIPOS>SUBSTRUCTURE
     1 73H         1 TEMP              0 ****  ****    0 ROOT
