@<TRIPOS>MOLECULE
73I
   59    63     1     0     0
SMALL
No Charge or Current Charge


@<TRIPOS>ATOM
      1 C10        -14.8670   -18.6570    15.5540 ca         1 73I      -0.053500
      2 C13        -11.0270   -18.9590    13.0860 c5         1 73I       0.182500
      3 C15        -11.9160   -20.2250    15.2600 ca         1 73I      -0.073800
      4 C17        -16.1690   -18.5600    16.0760 ca         1 73I      -0.172500
      5 C20        -17.0630   -18.4480    13.8220 ca         1 73I      -0.172500
      6 C21        -14.6520   -18.6580    14.1600 ca         1 73I      -0.083800
      7 C22        -11.8850   -16.6260     9.3040 ca         1 73I       0.204000
      8 C24        -12.6930   -18.3940     7.8090 ca         1 73I      -0.165000
      9 C26        -12.8190   -17.9890    12.3520 c5         1 73I       0.213500
     10 C01         -8.7630   -17.0180     9.5510 c3         1 73I       0.279000
     11 C02        -10.5180   -20.9740    17.1180 ca         1 73I      -0.172500
     12 C03        -10.6810   -17.4580    13.3670 c5         1 73I      -0.062400
     13 F01         -9.0800   -17.2170     8.2510 f          1 73I      -0.112000
     14 C04        -11.4870   -21.9290    17.4650 ca         1 73I       0.141100
     15 O01        -11.7770   -18.8410    11.8840 os         1 73I      -0.432000
     16 C05        -10.7310   -20.1260    16.0150 ca         1 73I      -0.058000
     17 C06        -12.8770   -21.1940    15.6090 ca         1 73I      -0.058000
     18 F02         -8.8880   -18.1970    10.2030 f          1 73I      -0.112000
     19 F03         -7.4590   -16.6620     9.6010 f          1 73I      -0.112000
     20 C07        -11.9400   -17.9830     8.9250 ca         1 73I      -0.051000
     21 C08        -12.6630   -22.0400    16.7110 ca         1 73I      -0.172500
     22 C09        -17.2670   -18.4570    15.2080 ca         1 73I       0.144100
     23 C11        -12.0410   -16.7820    12.9420 c5         1 73I      -0.336700
     24 C12        -13.3170   -16.0890     7.3870 ca         1 73I      -0.165000
     25 C16        -13.3870   -17.4450     7.0450 ca         1 73I       0.150100
     26 S01        -11.8780   -15.3590    11.7290 s6         1 73I       1.237100
     27 O05        -11.2890   -22.7550    18.5310 oh         1 73I      -0.535100
     28 C23        -12.1360   -19.3350    14.0860 ce         1 73I      -0.067400
     29 O06        -18.5320   -18.3620    15.7050 oh         1 73I      -0.534100
     30 C25        -15.7620   -18.5450    13.2980 ca         1 73I      -0.053500
     31 C14        -13.2830   -18.7500    13.6140 cf         1 73I      -0.069400
     32 C18        -12.5630   -15.6820     8.5030 ca         1 73I      -0.051000
     33 H1         -14.0240   -18.7170    16.2370 ha         1 73I       0.120000
     34 H2         -10.1810   -19.6560    13.0000 h1         1 73I       0.107700
     35 H3         -16.3150   -18.5610    17.1540 ha         1 73I       0.125000
     36 H4         -17.9140   -18.3670    13.1500 ha         1 73I       0.125000
     37 H5         -12.7220   -19.4480     7.5430 ha         1 73I       0.128500
     38 H6         -13.5820   -17.7750    11.5890 h1         1 73I       0.115700
     39 H7          -9.6010   -20.8830    17.6940 ha         1 73I       0.124000
     40 H8          -9.8250   -17.1360    12.7670 hc         1 73I       0.066200
     41 H9         -10.4290   -17.2750    14.4180 hc         1 73I       0.066200
     42 H10         -9.9750   -19.3890    15.7560 ha         1 73I       0.119500
     43 H11        -13.7880   -21.2950    15.0230 ha         1 73I       0.119500
     44 H12        -11.3840   -18.7240     9.4860 ha         1 73I       0.132000
     45 H13        -14.0500   -18.8050     5.8700 ho         1 73I       0.467000
     46 H14        -13.4110   -22.7840    16.9760 ha         1 73I       0.124000
     47 H15        -12.5690   -16.3460    13.7970 h1         1 73I       0.118700
     48 H16        -13.8400   -15.3490     6.7860 ha         1 73I       0.128500
     49 H17         -9.1650   -15.6670    11.1520 h1         1 73I       0.092200
     50 H18         -9.5530   -15.0110     9.5770 h1         1 73I       0.092200
     51 H19        -10.4210   -22.5380    18.9350 ho         1 73I       0.464000
     52 H21        -18.4830   -18.3840    16.6850 ho         1 73I       0.465000
     53 H22        -15.6250   -18.5460    12.2190 ha         1 73I       0.120000
     54 H24        -12.5000   -14.6240     8.7440 ha         1 73I       0.132000
     55 O04        -13.2100   -14.9440    11.2770 o          1 73I      -0.535500
     56 O03        -10.9310   -14.3590    12.2340 o          1 73I      -0.535500
     57 N01        -11.1010   -16.2040    10.4070 nh         1 73I      -0.785300
     58 O02        -14.1170   -17.8310     5.9610 oh         1 73I      -0.533100
     59 C19         -9.6470   -15.9130    10.1960 c3         1 73I       0.164800
@<TRIPOS>BOND
     1     1     4 ar  
     2     1     6 ar  
     3     1    33 1   
     4     2    12 1   
     5     2    15 1   
     6     2    28 1   
     7     2    34 1   
     8     3    16 ar  
     9     3    17 ar  
    10     3    28 1   
    11     4    22 ar  
    12     4    35 1   
    13     5    22 ar  
    14     5    30 ar  
    15     5    36 1   
    16     6    30 ar  
    17     6    31 1   
    18     7    20 ar  
    19     7    32 ar  
    20     7    57 1   
    21     8    20 ar  
    22     8    25 ar  
    23     8    37 1   
    24     9    15 1   
    25     9    23 1   
    26     9    31 1   
    27     9    38 1   
    28    10    13 1   
    29    10    18 1   
    30    10    19 1   
    31    10    59 1   
    32    11    14 ar  
    33    11    16 ar  
    34    11    39 1   
    35    12    23 1   
    36    12    40 1   
    37    12    41 1   
    38    14    21 ar  
    39    14    27 1   
    40    16    42 1   
    41    17    21 ar  
    42    17    43 1   
    43    20    44 1   
    44    21    46 1   
    45    22    29 1   
    46    23    26 1   
    47    23    47 1   
    48    24    25 ar  
    49    24    32 ar  
    50    24    48 1   
    51    25    58 1   
    52    26    55 2   
    53    26    56 2   
    54    26    57 1   
    55    27    51 1   
    56    28    31 2   
    57    29    52 1   
    58    30    53 1   
    59    32    54 1   
    60    45    58 1   
    61    49    59 1   
    62    50    59 1   
    63    57    59 1   
@<TRIPOS>SUBSTRUCTURE
     1 73I         1 TEMP              0 ****  ****    0 ROOT
