@<TRIPOS>MOLECULE
73I
   59    63     1     0     0
SMALL
abcg2


@<TRIPOS>ATOM
      1 C10        -14.8370   -18.5630    15.5210 ca         1 73I      -0.053500
      2 C13        -11.0580   -19.0680    13.1460 c5         1 73I       0.182500
      3 C15        -11.8900   -20.3270    15.2910 ca         1 73I      -0.073800
      4 C17        -16.1080   -18.3720    16.0380 ca         1 73I      -0.172500
      5 C20        -17.0430   -18.6920    13.8380 ca         1 73I      -0.172500
      6 C21        -14.6370   -18.8300    14.1610 ca         1 73I      -0.083800
      7 C22        -11.8850   -16.5270     9.1580 ca         1 73I       0.204000
      8 C24        -12.9650   -18.1660     7.7650 ca         1 73I      -0.165000
      9 C26        -12.8580   -18.2590    12.3380 c5         1 73I       0.213500
     10 C01         -8.8230   -16.9380     9.8820 c3         1 73I       0.279000
     11 C02        -10.3320   -21.0900    16.9990 ca         1 73I      -0.172500
     12 C03        -10.8240   -17.5510    13.4010 c5         1 73I      -0.062400
     13 F01         -9.1020   -17.5470     8.7120 f          1 73I      -0.112000
     14 C04        -11.3280   -21.8760    17.5720 ca         1 73I       0.141100
     15 O01        -11.7490   -19.0370    11.8840 os         1 73I      -0.432000
     16 C05        -10.6140   -20.3330    15.8700 ca         1 73I      -0.058000
     17 C06        -12.8720   -21.1410    15.8790 ca         1 73I      -0.058000
     18 F02         -8.8320   -17.8950    10.8300 f          1 73I      -0.112000
     19 F03         -7.5560   -16.4760     9.7910 f          1 73I      -0.112000
     20 C07        -12.2580   -17.8420     8.9160 ca         1 73I      -0.051000
     21 C08        -12.6010   -21.9050    17.0000 ca         1 73I      -0.172500
     22 C09        -17.2190   -18.4410    15.1970 ca         1 73I       0.144100
     23 C11        -12.1530   -16.9730    12.8700 c5         1 73I      -0.336700
     24 C12        -12.9020   -15.8500     7.0810 ca         1 73I      -0.165000
     25 C16        -13.2880   -17.1700     6.8460 ca         1 73I       0.150100
     26 S01        -12.0040   -15.6460    11.6720 s6         1 73I       1.237100
     27 O05        -11.1150   -22.6420    18.6800 oh         1 73I      -0.535100
     28 C23        -12.1580   -19.5340    14.0990 ce         1 73I      -0.067400
     29 O06        -18.4920   -18.2610    15.6510 oh         1 73I      -0.534100
     30 C25        -15.7650   -18.8750    13.3310 ca         1 73I      -0.053500
     31 C14        -13.2940   -18.9920    13.6050 cf         1 73I      -0.069400
     32 C18        -12.2070   -15.5330     8.2370 ca         1 73I      -0.051000
     33 H1         -13.9830   -18.4950    16.1810 ha         1 73I       0.120000
     34 H2         -10.1620   -19.6770    13.0790 h1         1 73I       0.107700
     35 H3         -16.2440   -18.1590    17.0930 ha         1 73I       0.125000
     36 H4         -17.9080   -18.7360    13.1890 ha         1 73I       0.125000
     37 H5         -13.2600   -19.1920     7.5760 ha         1 73I       0.128500
     38 H6         -13.5980   -18.1110    11.5600 h1         1 73I       0.115700
     39 H7          -9.3400   -21.0730    17.4350 ha         1 73I       0.124000
     40 H8          -9.9640   -17.2040    12.8350 hc         1 73I       0.066200
     41 H9         -10.6670   -17.3170    14.4510 hc         1 73I       0.066200
     42 H10         -9.8230   -19.7280    15.4440 ha         1 73I       0.119500
     43 H11        -13.8590   -21.1850    15.4410 ha         1 73I       0.119500
     44 H12        -11.9910   -18.6090     9.6280 ha         1 73I       0.132000
     45 H13        -14.1870   -18.3740     5.6490 ho         1 73I       0.467000
     46 H14        -13.3650   -22.5330    17.4380 ha         1 73I       0.124000
     47 H15        -12.7500   -16.4860    13.6410 h1         1 73I       0.118700
     48 H16        -13.1580   -15.0840     6.3600 ha         1 73I       0.128500
     49 H17         -9.3990   -15.3190    11.1090 h1         1 73I       0.092200
     50 H18         -9.6480   -15.0580     9.3820 h1         1 73I       0.092200
     51 H19        -10.2010   -22.5430    18.9820 ho         1 73I       0.464000
     52 H21        -18.4830   -18.0840    16.6010 ho         1 73I       0.465000
     53 H22        -15.6440   -19.0680    12.2730 ha         1 73I       0.120000
     54 H24        -11.9160   -14.5090     8.4290 ha         1 73I       0.132000
     55 O04        -13.3440   -15.3560    11.2200 o          1 73I      -0.535500
     56 O03        -11.2300   -14.5980    12.3040 o          1 73I      -0.535500
     57 N01        -11.1470   -16.1880    10.3500 nh         1 73I      -0.785300
     58 O02        -13.9760   -17.4310     5.7010 oh         1 73I      -0.533100
     59 C19         -9.7570   -15.7810    10.1930 c3         1 73I       0.164800
@<TRIPOS>BOND
     1     1     4 ar  
     2     1     6 ar  
     3     1    33 1   
     4     2    12 1   
     5     2    15 1   
     6     2    28 1   
     7     2    34 1   
     8     3    16 ar  
     9     3    17 ar  
    10     3    28 1   
    11     4    22 ar  
    12     4    35 1   
    13     5    22 ar  
    14     5    30 ar  
    15     5    36 1   
    16     6    30 ar  
    17     6    31 1   
    18     7    20 ar  
    19     7    32 ar  
    20     7    57 1   
    21     8    20 ar  
    22     8    25 ar  
    23     8    37 1   
    24     9    15 1   
    25     9    23 1   
    26     9    31 1   
    27     9    38 1   
    28    10    13 1   
    29    10    18 1   
    30    10    19 1   
    31    10    59 1   
    32    11    14 ar  
    33    11    16 ar  
    34    11    39 1   
    35    12    23 1   
    36    12    40 1   
    37    12    41 1   
    38    14    21 ar  
    39    14    27 1   
    40    16    42 1   
    41    17    21 ar  
    42    17    43 1   
    43    20    44 1   
    44    21    46 1   
    45    22    29 1   
    46    23    26 1   
    47    23    47 1   
    48    24    25 ar  
    49    24    32 ar  
    50    24    48 1   
    51    25    58 1   
    52    26    55 2   
    53    26    56 2   
    54    26    57 1   
    55    27    51 1   
    56    28    31 2   
    57    29    52 1   
    58    30    53 1   
    59    32    54 1   
    60    45    58 1   
    61    49    59 1   
    62    50    59 1   
    63    57    59 1   
@<TRIPOS>SUBSTRUCTURE
     1 73I         1 TEMP              0 ****  ****    0 ROOT
