@<TRIPOS>MOLECULE
73J
   53    59     1     0     0
SMALL
No Charge or Current Charge


@<TRIPOS>ATOM
      1 C4           4.5880    -0.0350    -0.4870 ca         1 73J      -0.068600
      2 C6           7.8700     1.5000     0.3420 cc         1 73J      -0.152100
      3 C7           6.5710     1.1900     0.6990 cd         1 73J      -0.219200
      4 C8           5.8980     0.4840    -0.3710 ca         1 73J      -0.091800
      5 C9           6.8250     0.3740    -1.3890 ca         1 73J       0.358500
      6 C10          3.5490     0.0750     0.6200 c          1 73J       0.615700
      7 N3           6.5680    -0.2280    -2.5620 nb         1 73J      -0.667000
      8 C13          0.5770    -2.9600     1.4050 ca         1 73J      -0.090000
      9 C14         -1.8070    -3.3950     1.0870 ca         1 73J      -0.111000
     10 C15         -0.4960    -3.8660     1.3180 ca         1 73J      -0.104000
     11 C1           4.3200    -0.6700    -1.7300 ca         1 73J      -0.173000
     12 C2           5.3240    -0.7410    -2.7200 ca         1 73J       0.348900
     13 N5           7.9940     0.9770    -0.9620 na         1 73J      -0.325400
     14 N11          2.3130    -0.4760     0.3370 ns         1 73J      -0.489900
     15 O12          3.7820     0.6120     1.6960 o          1 73J      -0.592100
     16 C16         -2.0570    -2.0160     0.9220 ca         1 73J      -0.065000
     17 C17         -0.9760    -1.1030     0.9620 cp         1 73J      -0.037000
     18 C18          0.3060    -1.5960     1.2310 ca         1 73J      -0.111300
     19 C19          1.2500    -0.3990     1.3390 c5         1 73J       0.195300
     20 C20         -0.9460     0.3720     0.8600 cp         1 73J       0.023000
     21 C21          0.3530     0.8260     1.1360 ca         1 73J      -0.121300
     22 C22          0.6880     2.1830     1.1970 ca         1 73J      -0.064000
     23 C23         -0.3280     3.1220     0.9600 ca         1 73J      -0.114000
     24 C24         -1.6360     2.6950     0.6470 ca         1 73J      -0.097000
     25 C25         -1.9730     1.3190     0.5780 ca         1 73J      -0.103900
     26 C26         -3.3260     0.9810     0.1350 cc         1 73J       0.477400
     27 N27         -4.4700     1.5990     0.6350 na         1 73J      -0.304600
     28 N28         -3.6310     0.1420    -0.8770 nd         1 73J      -0.569100
     29 C29         -5.0160     0.2180    -0.9700 ca         1 73J       0.088400
     30 C30         -5.5280     1.0970    -0.0580 ca         1 73J      -0.099200
     31 C31         -6.8970     1.3650     0.0610 ca         1 73J      -0.086000
     32 C32         -7.7670     0.6820    -0.8150 ca         1 73J      -0.133000
     33 C33         -7.2470    -0.2290    -1.7640 ca         1 73J       0.146000
     34 C34         -5.8600    -0.4700    -1.8510 ca         1 73J      -0.094000
     35 F35         -8.0900    -0.8770    -2.5980 f          1 73J      -0.181000
     36 H1           8.6680     2.0170     0.8730 h4         1 73J       0.217000
     37 H2           6.1330     1.4510     1.6600 ha         1 73J       0.224000
     38 H4          -2.6340    -4.1000     1.0480 ha         1 73J       0.116000
     39 H5          -0.3180    -4.9310     1.4500 ha         1 73J       0.115000
     40 H6           3.3550    -1.1130    -1.9530 ha         1 73J       0.124000
     41 H7           5.1220    -1.2280    -3.6740 h4         1 73J       0.023100
     42 H8           8.8270     1.0260    -1.5370 hn         1 73J       0.363000
     43 H9           2.1860    -0.9020    -0.5700 hn         1 73J       0.325500
     44 H10         -3.0780    -1.6800     0.7890 ha         1 73J       0.138000
     45 H11          1.6540    -0.3800     2.3620 h1         1 73J       0.108700
     46 H12          1.7030     2.5010     1.4220 ha         1 73J       0.131000
     47 H13         -0.1000     4.1850     0.9980 ha         1 73J       0.121000
     48 H14         -2.3890     3.4490     0.4280 ha         1 73J       0.114000
     49 H15         -4.4920     2.2840     1.3780 hn         1 73J       0.362000
     50 H17         -7.2760     2.0710     0.7970 ha         1 73J       0.122000
     51 H18         -8.8390     0.8550    -0.7640 ha         1 73J       0.132000
     52 H19         -5.4580    -1.1680    -2.5790 ha         1 73J       0.147000
     53 H3           1.5870    -3.3070     1.6120 ha         1 73J       0.121000
@<TRIPOS>BOND
     1     1     4 ar  
     2     1     6 1   
     3     1    11 ar  
     4     2     3 2   
     5     2    13 1   
     6     2    36 1   
     7     3     4 1   
     8     3    37 1   
     9     4     5 ar  
    10     5     7 ar  
    11     5    13 1   
    12     6    14 1   
    13     6    15 2   
    14     7    12 ar  
    15     8    10 ar  
    16     8    18 ar  
    17     8    53 1   
    18     9    10 ar  
    19     9    16 ar  
    20     9    38 1   
    21    10    39 1   
    22    11    12 ar  
    23    11    40 1   
    24    12    41 1   
    25    13    42 1   
    26    14    19 1   
    27    14    43 1   
    28    16    17 ar  
    29    16    44 1   
    30    17    18 ar  
    31    17    20 1   
    32    18    19 1   
    33    19    21 1   
    34    19    45 1   
    35    20    21 ar  
    36    20    25 ar  
    37    21    22 ar  
    38    22    23 ar  
    39    22    46 1   
    40    23    24 ar  
    41    23    47 1   
    42    24    25 ar  
    43    24    48 1   
    44    25    26 1   
    45    26    27 1   
    46    26    28 2   
    47    27    30 1   
    48    27    49 1   
    49    28    29 1   
    50    29    30 ar  
    51    29    34 ar  
    52    30    31 ar  
    53    31    32 ar  
    54    31    50 1   
    55    32    33 ar  
    56    32    51 1   
    57    33    34 ar  
    58    33    35 1   
    59    34    52 1   
@<TRIPOS>SUBSTRUCTURE
     1 73J         1 TEMP              0 ****  ****    0 ROOT
