@<TRIPOS>MOLECULE
73J
   53    59     1     0     0
SMALL
bcc


@<TRIPOS>ATOM
      1 C4           4.7280    -0.2940    -0.2280 ca         1 73J      -0.068600
      2 C6           7.5320     1.9720     0.1620 cc         1 73J      -0.102100
      3 C7           6.3140     1.6020     0.6570 cd         1 73J      -0.169200
      4 C8           5.8620     0.5190    -0.1530 ca         1 73J      -0.157100
      5 C9           6.8690     0.2910    -1.1260 ca         1 73J       0.423800
      6 C10          3.6290    -0.1390     0.7700 c          1 73J       0.682700
      7 N3           6.8540    -0.6230    -2.0790 nb         1 73J      -0.667000
      8 C13          0.5870    -2.8850     1.0140 ca         1 73J      -0.108000
      9 C14         -1.7270    -3.3770     0.5570 ca         1 73J      -0.129000
     10 C15         -0.4330    -3.8110     0.8240 ca         1 73J      -0.122000
     11 C1           4.7000    -1.2590    -1.2260 ca         1 73J      -0.256300
     12 C2           5.7730    -1.3870    -2.1120 ca         1 73J       0.414200
     13 N5           7.8660     1.1880    -0.9040 na         1 73J      -0.275100
     14 N11          2.3940    -0.4280     0.3180 ns         1 73J      -0.556900
     15 O12          3.8620     0.2230     1.9130 o          1 73J      -0.592100
     16 C16         -2.0270    -2.0240     0.4580 ca         1 73J      -0.083000
     17 C17         -1.0090    -1.0920     0.6370 cp         1 73J      -0.037000
     18 C18          0.2850    -1.5400     0.9260 ca         1 73J      -0.111300
     19 C19          1.2160    -0.3790     1.1470 c5         1 73J       0.195300
     20 C20         -0.9900     0.3820     0.6010 cp         1 73J       0.023000
     21 C21          0.3150     0.8030     0.8870 ca         1 73J      -0.121300
     22 C22          0.6620     2.1370     0.9520 ca         1 73J      -0.082000
     23 C23         -0.3240     3.0920     0.7390 ca         1 73J      -0.132000
     24 C24         -1.6250     2.6950     0.4690 ca         1 73J      -0.115000
     25 C25         -1.9800     1.3460     0.3880 ca         1 73J      -0.103900
     26 C26         -3.3760     1.0310     0.0650 cc         1 73J       0.477400
     27 N27         -4.4040     1.6280     0.7230 na         1 73J      -0.254300
     28 N28         -3.7840     0.2330    -0.8890 nd         1 73J      -0.569100
     29 C29         -5.1520     0.2970    -0.8530 ca         1 73J       0.088400
     30 C30         -5.5670     1.1750     0.1630 ca         1 73J      -0.099200
     31 C31         -6.9070     1.4230     0.4310 ca         1 73J      -0.104000
     32 C32         -7.8380     0.7690    -0.3550 ca         1 73J      -0.151000
     33 C33         -7.4160    -0.0960    -1.3670 ca         1 73J       0.110900
     34 C34         -6.0950    -0.3580    -1.6460 ca         1 73J      -0.112000
     35 F35         -8.3650    -0.7050    -2.1040 f          1 73J      -0.145900
     36 H1           8.2000     2.7480     0.4980 h4         1 73J       0.167000
     37 H2           5.8140     2.0500     1.4980 ha         1 73J       0.174000
     38 H4          -2.5160    -4.1040     0.4160 ha         1 73J       0.134000
     39 H5          -0.2210    -4.8700     0.8870 ha         1 73J       0.133000
     40 H6           3.8690    -1.9450    -1.3240 ha         1 73J       0.142000
     41 H7           5.7420    -2.1520    -2.8780 h4         1 73J       0.023100
     42 H8           8.7170     1.2580    -1.4390 hn         1 73J       0.312700
     43 H9           2.2570    -0.5870    -0.6680 hn         1 73J       0.325500
     44 H10         -3.0350    -1.7160     0.2290 ha         1 73J       0.156000
     45 H11          1.5480    -0.3600     2.1880 h1         1 73J       0.108700
     46 H12          1.6790     2.4340     1.1770 ha         1 73J       0.149000
     47 H13         -0.0840     4.1460     0.7820 ha         1 73J       0.139000
     48 H14         -2.3790     3.4530     0.2950 ha         1 73J       0.132000
     49 H15         -4.3220     2.2470     1.5140 hn         1 73J       0.311700
     50 H17         -7.2210     2.0940     1.2190 ha         1 73J       0.140000
     51 H18         -8.8970     0.9230    -0.1920 ha         1 73J       0.150000
     52 H19         -5.8050    -1.0360    -2.4390 ha         1 73J       0.165000
     53 H3           1.5970    -3.2110     1.2310 ha         1 73J       0.139000
@<TRIPOS>BOND
     1     1     4 ar  
     2     1     6 1   
     3     1    11 ar  
     4     2     3 2   
     5     2    13 1   
     6     2    36 1   
     7     3     4 1   
     8     3    37 1   
     9     4     5 ar  
    10     5     7 ar  
    11     5    13 1   
    12     6    14 1   
    13     6    15 2   
    14     7    12 ar  
    15     8    10 ar  
    16     8    18 ar  
    17     8    53 1   
    18     9    10 ar  
    19     9    16 ar  
    20     9    38 1   
    21    10    39 1   
    22    11    12 ar  
    23    11    40 1   
    24    12    41 1   
    25    13    42 1   
    26    14    19 1   
    27    14    43 1   
    28    16    17 ar  
    29    16    44 1   
    30    17    18 ar  
    31    17    20 1   
    32    18    19 1   
    33    19    21 1   
    34    19    45 1   
    35    20    21 ar  
    36    20    25 ar  
    37    21    22 ar  
    38    22    23 ar  
    39    22    46 1   
    40    23    24 ar  
    41    23    47 1   
    42    24    25 ar  
    43    24    48 1   
    44    25    26 1   
    45    26    27 1   
    46    26    28 2   
    47    27    30 1   
    48    27    49 1   
    49    28    29 1   
    50    29    30 ar  
    51    29    34 ar  
    52    30    31 ar  
    53    31    32 ar  
    54    31    50 1   
    55    32    33 ar  
    56    32    51 1   
    57    33    34 ar  
    58    33    35 1   
    59    34    52 1   
@<TRIPOS>SUBSTRUCTURE
     1 73J         1 TEMP              0 ****  ****    0 ROOT
