@<TRIPOS>MOLECULE
73K
   41    44     1     0     0
SMALL
No Charge or Current Charge


@<TRIPOS>ATOM
      1 C1          -0.5550     1.2350     0.1800 cc         1 73K       0.408900
      2 C2           0.2360     0.1290    -0.1390 cd         1 73K      -0.125000
      3 C3          -0.5210    -1.0530    -0.4340 cd         1 73K      -0.046000
      4 C12         -2.3490    -2.2740    -0.5940 cd         1 73K       0.321700
      5 C13         -6.2430     0.8520     0.3240 cc         1 73K       0.077300
      6 C14         -7.1180     0.6160     1.3490 cd         1 73K      -0.153000
      7 C15         -8.3550     0.2770     0.7630 cd         1 73K      -0.191000
      8 C16         -8.1860     0.3170    -0.5940 cc         1 73K       0.139900
      9 C18          2.5400    -0.7500    -0.7170 ca         1 73K      -0.114500
     10 C19          3.9410    -0.6990    -0.6180 ca         1 73K      -0.017500
     11 C20          4.5590     0.2850     0.1740 ca         1 73K      -0.268500
     12 C21          3.7610     1.2230     0.8550 ca         1 73K      -0.017500
     13 C22          2.3600     1.1680     0.7500 ca         1 73K      -0.114500
     14 C25          6.8120     1.4410    -1.0590 c3         1 73K      -0.337100
     15 N4          -1.8590    -1.0060    -0.5340 na         1 73K      -0.237300
     16 C5          -2.5730     0.0860    -0.0860 cd         1 73K       0.825400
     17 N6          -1.9490     1.2160     0.2200 nc         1 73K      -0.789000
     18 C7           1.7210     0.1760    -0.0300 ca         1 73K       0.044000
     19 N8          -3.9290     0.0980    -0.0430 nu         1 73K      -0.927100
     20 C9          -4.7850     1.2420     0.3370 c3         1 73K       0.208500
     21 N10         -0.1350    -2.3090    -0.5820 nc         1 73K      -0.100000
     22 N11         -1.2950    -3.0820    -0.6900 nc         1 73K      -0.338700
     23 O17         -6.8850     0.6690    -0.8830 os         1 73K      -0.228000
     24 O24          6.7240     1.0630     1.5330 o          1 73K      -0.523000
     25 O26          6.9130    -0.9630    -0.0210 o          1 73K      -0.523000
     26 H1          -0.1390     2.2000     0.4330 h4         1 73K       0.032100
     27 H2          -3.3990    -2.5390    -0.5790 h5         1 73K       0.075800
     28 H3          -6.8950     0.6790     2.4100 ha         1 73K       0.145000
     29 H4          -9.2740     0.0270     1.2830 ha         1 73K       0.148000
     30 H5          -8.8590     0.1290    -1.4200 h4         1 73K       0.058100
     31 H6           2.1060    -1.5010    -1.3670 ha         1 73K       0.129000
     32 H7           4.5390    -1.4250    -1.1680 ha         1 73K       0.137000
     33 H8           4.2180     1.9960     1.4720 ha         1 73K       0.137000
     34 H9           1.7840     1.8970     1.3120 ha         1 73K       0.129000
     35 H10          6.3300     2.4110    -0.8990 h1         1 73K       0.101700
     36 H11          7.9020     1.5460    -1.0630 h1         1 73K       0.101700
     37 H12          6.4630     0.9850    -1.9920 h1         1 73K       0.101700
     38 H13         -4.3670    -0.6610    -0.5570 hn         1 73K       0.506000
     39 H14         -4.6370     2.0800    -0.3580 h1         1 73K       0.081200
     40 H15         -4.5240     1.5980     1.3440 h1         1 73K       0.081200
     41 S23          6.3590     0.3600     0.2960 sy         1 73K       1.059500
@<TRIPOS>BOND
     1     1     2 2   
     2     1    17 1   
     3     1    26 1   
     4     2     3 1   
     5     2    18 1   
     6     3    15 1   
     7     3    21 2   
     8     4    15 1   
     9     4    22 2   
    10     4    27 1   
    11     5     6 2   
    12     5    20 1   
    13     5    23 1   
    14     6     7 1   
    15     6    28 1   
    16     7     8 2   
    17     7    29 1   
    18     8    23 1   
    19     8    30 1   
    20     9    10 ar  
    21     9    18 ar  
    22     9    31 1   
    23    10    11 ar  
    24    10    32 1   
    25    11    12 ar  
    26    11    41 1   
    27    12    13 ar  
    28    12    33 1   
    29    13    18 ar  
    30    13    34 1   
    31    14    35 1   
    32    14    36 1   
    33    14    37 1   
    34    14    41 1   
    35    15    16 1   
    36    16    17 2   
    37    16    19 1   
    38    19    20 1   
    39    19    38 1   
    40    20    39 1   
    41    20    40 1   
    42    21    22 1   
    43    24    41 2   
    44    25    41 2   
@<TRIPOS>SUBSTRUCTURE
     1 73K         1 TEMP              0 ****  ****    0 ROOT
