@<TRIPOS>MOLECULE
73K
   41    44     1     0     0
SMALL
abcg2


@<TRIPOS>ATOM
      1 C1          -0.5580     1.0820     0.4070 cc         1 73K       0.408900
      2 C2           0.2260    -0.0200     0.2030 cd         1 73K      -0.125000
      3 C3          -0.4870    -1.2440     0.0720 cd         1 73K      -0.046000
      4 C12         -2.2530    -2.5120     0.0060 cd         1 73K       0.321700
      5 C13         -6.0740     0.8890     0.2540 cc         1 73K       0.077300
      6 C14         -7.2710     0.7800     0.8790 cd         1 73K      -0.153000
      7 C15         -8.2520     0.6560    -0.1510 cd         1 73K      -0.191000
      8 C16         -7.5700     0.6940    -1.3190 cc         1 73K       0.139900
      9 C18          2.4140    -0.7470    -0.7610 ca         1 73K      -0.114500
     10 C19          3.7900    -0.6320    -0.8560 ca         1 73K      -0.017500
     11 C20          4.4530     0.2910    -0.0600 ca         1 73K      -0.268500
     12 C21          3.7570     1.0910     0.8360 ca         1 73K      -0.017500
     13 C22          2.3820     0.9690     0.9230 ca         1 73K      -0.114500
     14 C25          6.4310     1.7860    -1.3480 c3         1 73K      -0.337100
     15 N4          -1.8610    -1.2120     0.1730 na         1 73K      -0.237300
     16 C5          -2.5520    -0.0420     0.4020 cd         1 73K       0.825400
     17 N6          -1.9050     1.0800     0.5140 nc         1 73K      -0.789000
     18 C7           1.6880     0.0590     0.1210 ca         1 73K       0.044000
     19 N8          -3.8820    -0.1090     0.4780 nu         1 73K      -0.927100
     20 C9          -4.6960     1.0590     0.7710 c3         1 73K       0.208500
     21 N10         -0.0990    -2.4770    -0.1340 nc         1 73K      -0.100000
     22 N11         -1.2070    -3.2530    -0.1730 nc         1 73K      -0.338700
     23 O17         -6.2490     0.8370    -1.0860 os         1 73K      -0.228000
     24 O24          6.7200     0.9010     1.1150 o          1 73K      -0.523000
     25 O26          6.7570    -0.7630    -0.7700 o          1 73K      -0.523000
     26 H1          -0.1000     2.0610     0.4870 h4         1 73K       0.032100
     27 H2          -3.2740    -2.8560     0.0220 h5         1 73K       0.075800
     28 H3          -7.4340     0.7880     1.9450 ha         1 73K       0.145000
     29 H4          -9.3180     0.5520    -0.0340 ha         1 73K       0.148000
     30 H5          -7.8750     0.6320    -2.3510 h4         1 73K       0.058100
     31 H6           1.9050    -1.4660    -1.3860 ha         1 73K       0.129000
     32 H7           4.3320    -1.2600    -1.5510 ha         1 73K       0.137000
     33 H8           4.2720     1.7960     1.4750 ha         1 73K       0.137000
     34 H9           1.8490     1.5740     1.6440 ha         1 73K       0.129000
     35 H10          5.9540     2.6850    -0.9660 h1         1 73K       0.101700
     36 H11          7.5030     1.9480    -1.4590 h1         1 73K       0.101700
     37 H12          5.9950     1.5010    -2.3030 h1         1 73K       0.101700
     38 H13         -4.3240    -1.0070     0.6010 hn         1 73K       0.506000
     39 H14         -4.2150     1.9280     0.3210 h1         1 73K       0.081200
     40 H15         -4.7470     1.2400     1.8470 h1         1 73K       0.081200
     41 S23          6.2130     0.4600    -0.1830 sy         1 73K       1.059500
@<TRIPOS>BOND
     1     1     2 2   
     2     1    17 1   
     3     1    26 1   
     4     2     3 1   
     5     2    18 1   
     6     3    15 1   
     7     3    21 2   
     8     4    15 1   
     9     4    22 2   
    10     4    27 1   
    11     5     6 2   
    12     5    20 1   
    13     5    23 1   
    14     6     7 1   
    15     6    28 1   
    16     7     8 2   
    17     7    29 1   
    18     8    23 1   
    19     8    30 1   
    20     9    10 ar  
    21     9    18 ar  
    22     9    31 1   
    23    10    11 ar  
    24    10    32 1   
    25    11    12 ar  
    26    11    41 1   
    27    12    13 ar  
    28    12    33 1   
    29    13    18 ar  
    30    13    34 1   
    31    14    35 1   
    32    14    36 1   
    33    14    37 1   
    34    14    41 1   
    35    15    16 1   
    36    16    17 2   
    37    16    19 1   
    38    19    20 1   
    39    19    38 1   
    40    20    39 1   
    41    20    40 1   
    42    21    22 1   
    43    24    41 2   
    44    25    41 2   
@<TRIPOS>SUBSTRUCTURE
     1 73K         1 TEMP              0 ****  ****    0 ROOT
