@<TRIPOS>MOLECULE
73N
   27    26     1     0     0
SMALL
bcc


@<TRIPOS>ATOM
      1 C2          -4.7380     0.1580     0.0480 c2         1 73N       0.797100
      2 C9           0.1460    -0.9210     0.0210 c3         1 73N      -0.059400
      3 C12          1.5250    -0.3280     0.3250 c3         1 73N      -0.025300
      4 C20          2.5970    -1.4420     0.2640 c          1 73N       0.919600
      5 N23          1.7770     0.7930    -0.5450 ns         1 73N      -0.586900
      6 N1          -4.9940    -0.6660    -1.0230 nv         1 73N      -0.908800
      7 N3          -5.7190     0.6360     0.7250 n2         1 73N      -0.957100
      8 N4          -3.4090     0.3910     0.2990 nu         1 73N      -0.875200
      9 C5          -2.3470    -0.5180    -0.1010 c3         1 73N       0.202800
     10 C6          -0.9980     0.0390     0.3200 c3         1 73N      -0.090400
     11 O21          2.5540    -2.2840     1.1880 o          1 73N      -0.862800
     12 O22          3.3940    -1.4360    -0.6920 o          1 73N      -0.862800
     13 C25          2.9120     1.5940    -0.3340 c          1 73N       1.013600
     14 O26          3.3910     1.6170     0.8210 o          1 73N      -0.881800
     15 H1           0.1080    -1.2300    -1.0310 hc         1 73N       0.022700
     16 H2           0.0180    -1.8300     0.6130 hc         1 73N       0.022700
     17 H3           1.5040     0.0410     1.3540 h1         1 73N       0.052700
     18 H4           1.6410     0.5730    -1.5210 hn         1 73N       0.230500
     19 H5          -4.3540    -0.6220    -1.8000 hn         1 73N       0.398300
     20 H6          -5.9550    -0.6390    -1.3220 hn         1 73N       0.398300
     21 H7          -5.3860     1.1340     1.5430 hn         1 73N       0.370400
     22 H9          -3.2420     0.8400     1.1860 hn         1 73N       0.409800
     23 H10         -2.4900    -1.5190     0.3250 h1         1 73N       0.029200
     24 H11         -2.3490    -0.6360    -1.1880 h1         1 73N       0.029200
     25 H12         -1.0100     0.2480     1.3950 hc         1 73N       0.049200
     26 H13         -0.8260     0.9940    -0.1820 hc         1 73N       0.049200
     27 OXT          3.3110     2.2580    -1.3180 o          1 73N      -0.881800
@<TRIPOS>BOND
     1     1     6 1   
     2     1     7 2   
     3     1     8 1   
     4     2     3 1   
     5     2    10 1   
     6     2    15 1   
     7     2    16 1   
     8     3     4 1   
     9     3     5 1   
    10     3    17 1   
    11     4    11 1   
    12     4    12 1   
    13     5    13 1   
    14     5    18 1   
    15     6    19 1   
    16     6    20 1   
    17     7    21 1   
    18     8     9 1   
    19     8    22 1   
    20     9    10 1   
    21     9    23 1   
    22     9    24 1   
    23    10    25 1   
    24    10    26 1   
    25    13    14 1   
    26    13    27 1   
@<TRIPOS>SUBSTRUCTURE
     1 73N         1 TEMP              0 ****  ****    0 ROOT
