@<TRIPOS>MOLECULE
73N
   27    26     1     0     0
SMALL
No Charge or Current Charge


@<TRIPOS>ATOM
      1 C2          -4.6520    -0.1100    -0.0570 c2         1 73N       0.797100
      2 C9           0.2300    -1.1210     0.0850 c3         1 73N      -0.059400
      3 C12          1.6330    -0.5140     0.3610 c3         1 73N      -0.025300
      4 C20          2.7310    -1.6280     0.4480 c          1 73N       0.709000
      5 N23          2.0100     0.5160    -0.6460 ns         1 73N      -0.519900
      6 N1          -4.8740     0.2830    -1.2620 nv         1 73N      -1.019200
      7 N3          -5.4090     0.2290     0.8590 n2         1 73N      -0.957100
      8 N4          -3.3890     0.2210     0.0840 nu         1 73N      -0.930400
      9 C5          -2.3150    -0.7730    -0.0260 c3         1 73N       0.202800
     10 C6          -0.9390    -0.1130     0.1920 c3         1 73N      -0.090400
     11 O21          3.3540    -1.7470     1.4950 o          1 73N      -0.757500
     12 O22          2.9630    -2.3120    -0.5410 o          1 73N      -0.757500
     13 C25          1.9340     1.8740    -0.4920 c          1 73N       0.736000
     14 O26          1.5550     2.3430     0.5650 o          1 73N      -0.776500
     15 H1           0.2210    -1.5780    -0.9130 hc         1 73N       0.022700
     16 H2           0.0570    -1.9320     0.8030 hc         1 73N       0.022700
     17 H3           1.6010    -0.0400     1.3510 h1         1 73N       0.052700
     18 H4           2.3550     0.1940    -1.5400 hn         1 73N       0.230500
     19 H5          -3.9980     0.6630    -1.5800 hn         1 73N       0.453500
     20 H6          -5.6230     0.9560    -1.2510 hn         1 73N       0.453500
     21 H7          -4.8800     0.1380     1.7320 hn         1 73N       0.370400
     22 H9          -3.2610     0.9140     0.8110 hn         1 73N       0.465000
     23 H10         -2.4630    -1.5620     0.7240 h1         1 73N       0.029200
     24 H11         -2.3390    -1.2410    -1.0190 h1         1 73N       0.029200
     25 H12         -0.9160     0.3590     1.1820 hc         1 73N       0.049200
     26 H13         -0.8050     0.6820    -0.5510 hc         1 73N       0.049200
     27 OXT          2.2820     2.5450    -1.4440 o          1 73N      -0.776500
@<TRIPOS>BOND
     1     1     6 1   
     2     1     7 2   
     3     1     8 1   
     4     2     3 1   
     5     2    10 1   
     6     2    15 1   
     7     2    16 1   
     8     3     4 1   
     9     3     5 1   
    10     3    17 1   
    11     4    11 1   
    12     4    12 1   
    13     5    13 1   
    14     5    18 1   
    15     6    19 1   
    16     6    20 1   
    17     7    21 1   
    18     8     9 1   
    19     8    22 1   
    20     9    10 1   
    21     9    23 1   
    22     9    24 1   
    23    10    25 1   
    24    10    26 1   
    25    13    14 1   
    26    13    27 1   
@<TRIPOS>SUBSTRUCTURE
     1 73N         1 TEMP              0 ****  ****    0 ROOT
