@<TRIPOS>MOLECULE
73O
   26    26     1     0     0
SMALL
No Charge or Current Charge


@<TRIPOS>ATOM
      1 N49          3.0690     1.6490     0.6240 n8         1 73O      -0.988200
      2 C50          2.6850     0.1970     0.4900 c3         1 73O       0.020500
      3 C51          3.6300    -0.7030    -0.4150 c          1 73O       0.724000
      4 C52          1.2060     0.0730     0.0330 c3         1 73O      -0.097400
      5 C54          0.1690     0.6250     1.0410 c3         1 73O      -0.037100
      6 C57         -1.2620     0.3830     0.5780 ca         1 73O      -0.086300
      7 C60         -1.9550    -0.7740     0.9860 ca         1 73O      -0.073500
      8 C61         -3.2750    -0.9990     0.5550 ca         1 73O      -0.176000
      9 C62         -3.9060    -0.0680    -0.2850 ca         1 73O       0.114100
     10 C63         -3.2210     1.0850    -0.6960 ca         1 73O      -0.176000
     11 C64         -1.9010     1.3110    -0.2670 ca         1 73O      -0.073500
     12 O69         -5.1840    -0.2800    -0.7060 oh         1 73O      -0.547100
     13 O85          3.7970    -0.3850    -1.5870 o          1 73O      -0.731500
     14 O1           4.2120    -1.6440     0.1100 o          1 73O      -0.731500
     15 H1           3.1020     2.0670    -0.3140 hn         1 73O       0.374500
     16 H2           2.3120     2.1550     1.0950 hn         1 73O       0.374500
     17 H4           2.7400    -0.2340     1.4990 h1         1 73O       0.042700
     18 H5           1.0750     0.5700    -0.9370 hc         1 73O       0.047700
     19 H6           0.9860    -0.9890    -0.1330 hc         1 73O       0.047700
     20 H7           0.3320     0.1530     2.0180 hc         1 73O       0.035700
     21 H8           0.3320     1.6990     1.1890 hc         1 73O       0.035700
     22 H9          -1.4700    -1.5010     1.6350 ha         1 73O       0.114500
     23 H10         -3.7980    -1.8960     0.8770 ha         1 73O       0.109000
     24 H11         -3.7100     1.8050    -1.3480 ha         1 73O       0.109000
     25 H12         -1.3750     2.2060    -0.5910 ha         1 73O       0.114500
     26 H13         -5.4990    -1.1270    -0.3240 ho         1 73O       0.454000
@<TRIPOS>BOND
     1     1     2 1   
     2     1    15 1   
     3     1    16 1   
     4     2     3 1   
     5     2     4 1   
     6     2    17 1   
     7     3    13 1   
     8     3    14 1   
     9     4     5 1   
    10     4    18 1   
    11     4    19 1   
    12     5     6 1   
    13     5    20 1   
    14     5    21 1   
    15     6     7 ar  
    16     6    11 ar  
    17     7     8 ar  
    18     7    22 1   
    19     8     9 ar  
    20     8    23 1   
    21     9    10 ar  
    22     9    12 1   
    23    10    11 ar  
    24    10    24 1   
    25    11    25 1   
    26    12    26 1   
@<TRIPOS>SUBSTRUCTURE
     1 73O         1 TEMP              0 ****  ****    0 ROOT
