@<TRIPOS>MOLECULE
73O
   26    26     1     0     0
SMALL
bcc


@<TRIPOS>ATOM
      1 N49          3.0660     1.6230     0.5360 n8         1 73O      -0.877800
      2 C50          2.6550     0.2290     0.5260 c3         1 73O       0.020500
      3 C51          3.5520    -0.5980    -0.4200 c          1 73O       0.934600
      4 C52          1.1900    -0.0130     0.1220 c3         1 73O      -0.097400
      5 C54          0.1690     0.6450     1.0520 c3         1 73O      -0.037100
      6 C57         -1.2450     0.3970     0.6070 ca         1 73O      -0.086300
      7 C60         -1.9270    -0.7590     0.9740 ca         1 73O      -0.091500
      8 C61         -3.2200    -1.0120     0.5340 ca         1 73O      -0.194000
      9 C62         -3.8630    -0.0990    -0.2960 ca         1 73O       0.114100
     10 C63         -3.1950     1.0620    -0.6780 ca         1 73O      -0.194000
     11 C64         -1.9050     1.2960    -0.2280 ca         1 73O      -0.091500
     12 O69         -5.1210    -0.2860    -0.7530 oh         1 73O      -0.508100
     13 O85          4.1300     0.0120    -1.3410 o          1 73O      -0.836800
     14 O1           3.5850    -1.8280    -0.2090 o          1 73O      -0.836800
     15 H1           3.1270     1.9490    -0.4200 hn         1 73O       0.319300
     16 H2           2.3700     2.1960     0.9960 hn         1 73O       0.319300
     17 H4           2.7850    -0.1670     1.5410 h1         1 73O       0.042700
     18 H5           1.0340     0.3510    -0.9000 hc         1 73O       0.047700
     19 H6           1.0020    -1.0900     0.1030 hc         1 73O       0.047700
     20 H7           0.3130     0.2650     2.0680 hc         1 73O       0.035700
     21 H8           0.3400     1.7240     1.0980 hc         1 73O       0.035700
     22 H9          -1.4450    -1.4830     1.6220 ha         1 73O       0.132500
     23 H10         -3.7260    -1.9200     0.8450 ha         1 73O       0.127000
     24 H11         -3.6890     1.7800    -1.3200 ha         1 73O       0.127000
     25 H12         -1.4040     2.2080    -0.5320 ha         1 73O       0.132500
     26 H13         -5.4860    -1.1040    -0.3990 ho         1 73O       0.415000
@<TRIPOS>BOND
     1     1     2 1   
     2     1    15 1   
     3     1    16 1   
     4     2     3 1   
     5     2     4 1   
     6     2    17 1   
     7     3    13 1   
     8     3    14 1   
     9     4     5 1   
    10     4    18 1   
    11     4    19 1   
    12     5     6 1   
    13     5    20 1   
    14     5    21 1   
    15     6     7 ar  
    16     6    11 ar  
    17     7     8 ar  
    18     7    22 1   
    19     8     9 ar  
    20     8    23 1   
    21     9    10 ar  
    22     9    12 1   
    23    10    11 ar  
    24    10    24 1   
    25    11    25 1   
    26    12    26 1   
@<TRIPOS>SUBSTRUCTURE
     1 73O         1 TEMP              0 ****  ****    0 ROOT
