@<TRIPOS>MOLECULE
73P
   25    24     1     0     0
SMALL
abcg2


@<TRIPOS>ATOM
      1 C1           4.2400    -0.5940     0.2770 c3         1 73P       0.139800
      2 C9           0.6450     0.8420    -0.1850 c3         1 73P      -0.060400
      3 C12         -0.7540     0.4010     0.2540 c3         1 73P      -0.023300
      4 C20         -1.7710     1.5170    -0.0750 c          1 73P       0.710000
      5 N23         -1.0690    -0.8790    -0.3300 ns         1 73P      -0.518900
      6 C25         -2.2590    -1.5310     0.0310 c          1 73P       0.735000
      7 O26         -2.7550    -1.2440     1.1420 o          1 73P      -0.779000
      8 O22         -2.5020     1.3620    -1.0720 o          1 73P      -0.761000
      9 O21         -1.7480     2.5150     0.6790 o          1 73P      -0.761000
     10 C6           1.7550    -0.1010     0.2620 c3         1 73P      -0.076400
     11 C5           3.1390     0.3420    -0.1970 c3         1 73P      -0.078400
     12 N1           5.5460    -0.1550    -0.1990 n8         1 73P      -1.001200
     13 H1           4.2590    -0.5970     1.3700 h1         1 73P       0.023700
     14 H2           3.9880    -1.6200    -0.0270 h1         1 73P       0.023700
     15 H3           0.6690     0.9430    -1.2780 hc         1 73P       0.020200
     16 H4           0.8360     1.8410     0.2140 hc         1 73P       0.020200
     17 H5          -0.7350     0.2840     1.3410 h1         1 73P       0.050700
     18 H6          -0.9030    -0.9090    -1.3250 hn         1 73P       0.230500
     19 H9           1.7400    -0.1730     1.3550 hc         1 73P       0.039700
     20 H10          1.5520    -1.1080    -0.1100 hc         1 73P       0.039700
     21 H11          3.3480     1.3540     0.1640 hc         1 73P       0.031200
     22 H12          3.1580     0.3940    -1.2920 hc         1 73P       0.031200
     23 H13          6.2580    -0.7900     0.1390 hn         1 73P       0.372000
     24 H14          5.5730    -0.2360    -1.2090 hn         1 73P       0.372000
     25 OXT         -2.6890    -2.3840    -0.7800 o          1 73P      -0.779000
@<TRIPOS>BOND
     1     1    11 1   
     2     1    12 1   
     3     1    13 1   
     4     1    14 1   
     5     2     3 1   
     6     2    10 1   
     7     2    15 1   
     8     2    16 1   
     9     3     4 1   
    10     3     5 1   
    11     3    17 1   
    12     4     8 1   
    13     4     9 1   
    14     5     6 1   
    15     5    18 1   
    16     6     7 1   
    17     6    25 1   
    18    10    11 1   
    19    10    19 1   
    20    10    20 1   
    21    11    21 1   
    22    11    22 1   
    23    12    23 1   
    24    12    24 1   
@<TRIPOS>SUBSTRUCTURE
     1 73P         1 TEMP              0 ****  ****    0 ROOT
