@<TRIPOS>MOLECULE
73P
   25    24     1     0     0
SMALL
No Charge or Current Charge


@<TRIPOS>ATOM
      1 C1           4.0990    -0.7310     0.3260 c3         1 73P       0.139800
      2 C9           0.5730     0.9590    -0.2860 c3         1 73P      -0.060400
      3 C12         -0.8880     0.6620     0.1520 c3         1 73P      -0.023300
      4 C20         -1.8440     1.8500    -0.2070 c          1 73P       0.710000
      5 N23         -1.4000    -0.6140    -0.4200 ns         1 73P      -0.518900
      6 C25         -1.4740    -1.8230     0.2180 c          1 73P       0.735000
      7 O26         -1.1300    -1.9160     1.3820 o          1 73P      -0.779000
      8 O22         -2.0210     2.1360    -1.3850 o          1 73P      -0.761000
      9 O21         -2.4230     2.4240     0.7070 o          1 73P      -0.761000
     10 C6           1.6160    -0.0660     0.2200 c3         1 73P      -0.076400
     11 C5           3.0650     0.2960    -0.1800 c3         1 73P      -0.078400
     12 N1           5.4710    -0.3620    -0.0700 n8         1 73P      -1.001200
     13 H1           4.0550    -0.7920     1.4230 h1         1 73P       0.023700
     14 H2           3.8690    -1.7220    -0.0880 h1         1 73P       0.023700
     15 H3           0.6210     1.0120    -1.3810 hc         1 73P       0.020200
     16 H4           0.8500     1.9520     0.0890 hc         1 73P       0.020200
     17 H5          -0.8970     0.5820     1.2460 h1         1 73P       0.050700
     18 H6          -1.7240    -0.6030    -1.3770 hn         1 73P       0.230500
     19 H9           1.5520    -0.1350     1.3130 hc         1 73P       0.039700
     20 H10          1.3760    -1.0580    -0.1790 hc         1 73P       0.039700
     21 H11          3.3110     1.2870     0.2220 hc         1 73P       0.031200
     22 H12          3.1270     0.3660    -1.2730 hc         1 73P       0.031200
     23 H13          6.1140    -1.1070     0.2230 hn         1 73P       0.372000
     24 H14          5.5340    -0.3730    -1.0940 hn         1 73P       0.372000
     25 OXT         -1.9140    -2.7500    -0.4320 o          1 73P      -0.779000
@<TRIPOS>BOND
     1     1    11 1   
     2     1    12 1   
     3     1    13 1   
     4     1    14 1   
     5     2     3 1   
     6     2    10 1   
     7     2    15 1   
     8     2    16 1   
     9     3     4 1   
    10     3     5 1   
    11     3    17 1   
    12     4     8 1   
    13     4     9 1   
    14     5     6 1   
    15     5    18 1   
    16     6     7 1   
    17     6    25 1   
    18    10    11 1   
    19    10    19 1   
    20    10    20 1   
    21    11    21 1   
    22    11    22 1   
    23    12    23 1   
    24    12    24 1   
@<TRIPOS>SUBSTRUCTURE
     1 73P         1 TEMP              0 ****  ****    0 ROOT
