@<TRIPOS>MOLECULE
73Q
   28    30     1     0     0
SMALL
No Charge or Current Charge


@<TRIPOS>ATOM
      1 C1           3.1600    -2.8660     0.0890 c3         1 73Q      -0.126400
      2 C2           2.8940    -1.3880     0.0890 cc         1 73Q       0.353300
      3 N1           3.8740    -0.4890     0.1300 nd         1 73Q      -0.528800
      4 N2           3.1900     0.7300     0.1050 na         1 73Q       0.105800
      5 C3           3.9150     2.0100     0.1510 c3         1 73Q       0.080900
      6 C4           1.8120     0.4930     0.0610 cd         1 73Q       0.297000
      7 N3           0.7920     1.4590    -0.0340 na         1 73Q      -0.596700
      8 O1           1.0710     2.8480    -0.1280 oh         1 73Q      -0.364300
      9 C5          -0.5300     0.9410    -0.0220 ca         1 73Q       0.340000
     10 C6          -1.6160     1.8460    -0.0100 ca         1 73Q      -0.158000
     11 C7          -2.9460     1.3900    -0.0140 ca         1 73Q      -0.050000
     12 C8          -3.2130     0.0160    -0.0310 ca         1 73Q       0.076000
     13 Cl          -4.8760    -0.5580    -0.0370 cl         1 73Q      -0.190000
     14 C9          -2.1540    -0.9010    -0.0390 ca         1 73Q      -0.019000
     15 C10         -0.8140    -0.4480    -0.0320 ca         1 73Q      -0.196600
     16 C11          0.3010    -1.4370    -0.0240 c          1 73Q       0.638300
     17 O2           0.1140    -2.6460    -0.0610 o          1 73Q      -0.552100
     18 C12          1.6070    -0.8230     0.0420 cc         1 73Q      -0.338600
     19 H11          2.6820    -3.3460     0.9500 hc         1 73Q       0.059033
     20 H12          2.7700    -3.3300    -0.8240 hc         1 73Q       0.059033
     21 H13          4.2340    -3.0770     0.1400 hc         1 73Q       0.059033
     22 H31          3.7610     2.5520    -0.7880 h1         1 73Q       0.060033
     23 H32          3.5450     2.6110     0.9900 h1         1 73Q       0.060033
     24 H33          4.9870     1.8260     0.2880 h1         1 73Q       0.060033
     25 HO1          1.0840     3.1020    -1.0820 ho         1 73Q       0.452000
     26 H6          -1.4380     2.9170     0.0050 ha         1 73Q       0.130000
     27 H7          -3.7670     2.1030    -0.0050 ha         1 73Q       0.133000
     28 H9          -2.3780    -1.9660    -0.0470 ha         1 73Q       0.156000
@<TRIPOS>BOND
     1     1     2 1   
     2     1    19 1   
     3     1    20 1   
     4     1    21 1   
     5     2     3 2   
     6     2    18 1   
     7     3     4 1   
     8     4     5 1   
     9     4     6 1   
    10     5    22 1   
    11     5    23 1   
    12     5    24 1   
    13     6     7 1   
    14     6    18 2   
    15     7     8 1   
    16     7     9 1   
    17     8    25 1   
    18     9    10 ar  
    19     9    15 ar  
    20    10    11 ar  
    21    10    26 1   
    22    11    12 ar  
    23    11    27 1   
    24    12    13 1   
    25    12    14 ar  
    26    14    15 ar  
    27    14    28 1   
    28    15    16 1   
    29    16    17 2   
    30    16    18 1   
@<TRIPOS>SUBSTRUCTURE
     1 73Q         1 TEMP              0 ****  ****    0 ROOT
