@<TRIPOS>MOLECULE
73Q
   28    30     1     0     0
SMALL
abcg2


@<TRIPOS>ATOM
      1 C1           3.2670    -2.8460     0.1150 c3         1 73Q      -0.126400
      2 C2           2.8770    -1.4130     0.0840 cc         1 73Q       0.353300
      3 N1           3.7660    -0.4550     0.1050 nd         1 73Q      -0.528800
      4 N2           3.0930     0.7250     0.0630 na         1 73Q       0.105800
      5 C3           3.8470     1.9610     0.0920 c3         1 73Q       0.080900
      6 C4           1.7760     0.5080     0.0210 cd         1 73Q       0.297000
      7 N3           0.7590     1.3970    -0.0390 na         1 73Q      -0.596700
      8 O1           1.0150     2.7240     0.0750 oh         1 73Q      -0.364300
      9 C5          -0.5470     0.9560    -0.0360 ca         1 73Q       0.340000
     10 C6          -1.6050     1.8740    -0.0430 ca         1 73Q      -0.158000
     11 C7          -2.9060     1.4250    -0.0570 ca         1 73Q      -0.050000
     12 C8          -3.1740     0.0580    -0.0630 ca         1 73Q       0.076000
     13 CL          -4.8180    -0.4860    -0.0860 cl         1 73Q      -0.190000
     14 C9          -2.1480    -0.8550    -0.0490 ca         1 73Q      -0.019000
     15 C10         -0.8190    -0.4250    -0.0330 ca         1 73Q      -0.196600
     16 C11          0.2590    -1.4410    -0.0040 c          1 73Q       0.638300
     17 O2           0.0230    -2.6450    -0.0030 o          1 73Q      -0.552100
     18 C12          1.5680    -0.8680     0.0320 cc         1 73Q      -0.338600
     19 H11          2.8380    -3.3490     0.9820 hc         1 73Q       0.059033
     20 H12          2.9050    -3.3690    -0.7700 hc         1 73Q       0.059033
     21 H13          4.3500    -2.9480     0.1580 hc         1 73Q       0.059033
     22 H31          3.6610     2.5610    -0.7960 h1         1 73Q       0.060033
     23 H32          3.6200     2.5450     0.9800 h1         1 73Q       0.060033
     24 H33          4.8970     1.6870     0.1100 h1         1 73Q       0.060033
     25 HO1          1.0380     3.0830    -0.8260 ho         1 73Q       0.452000
     26 H6          -1.4190     2.9380    -0.0380 ha         1 73Q       0.130000
     27 H7          -3.7150     2.1430    -0.0630 ha         1 73Q       0.133000
     28 H9          -2.3490    -1.9180    -0.0490 ha         1 73Q       0.156000
@<TRIPOS>BOND
     1     1     2 1   
     2     1    19 1   
     3     1    20 1   
     4     1    21 1   
     5     2     3 2   
     6     2    18 1   
     7     3     4 1   
     8     4     5 1   
     9     4     6 1   
    10     5    22 1   
    11     5    23 1   
    12     5    24 1   
    13     6     7 1   
    14     6    18 2   
    15     7     8 1   
    16     7     9 1   
    17     8    25 1   
    18     9    10 ar  
    19     9    15 ar  
    20    10    11 ar  
    21    10    26 1   
    22    11    12 ar  
    23    11    27 1   
    24    12    13 1   
    25    12    14 ar  
    26    14    15 ar  
    27    14    28 1   
    28    15    16 1   
    29    16    17 2   
    30    16    18 1   
@<TRIPOS>SUBSTRUCTURE
     1 73Q         1 TEMP              0 ****  ****    0 ROOT
