@<TRIPOS>MOLECULE
73S
   49    54     1     0     0
SMALL
No Charge or Current Charge


@<TRIPOS>ATOM
      1 C4          -0.0040     9.4680    25.9160 ca         1 73S       0.170900
      2 C5           1.1920     9.9840    25.3800 ca         1 73S      -0.047000
      3 C6           1.1090    11.1900    24.6180 ca         1 73S       0.127500
      4 N1          -0.1040    11.7760    24.4360 nb         1 73S      -0.224000
      5 C7           2.2920    11.9160    23.9720 c          1 73S       0.518600
      6 C12          8.3090     9.9430    24.2780 ca         1 73S      -0.110000
      7 N3          -1.1930    10.0710    25.7290 nb         1 73S      -0.232000
      8 C13          7.2720     9.3400    23.5340 ca         1 73S      -0.102000
      9 C14          6.0620    10.0260    23.3210 ca         1 73S      -0.085000
     10 O8           2.1270    12.7540    23.0910 o          1 73S      -0.571100
     11 C15          8.1550    11.2440    24.8020 ca         1 73S      -0.065000
     12 C2          -1.1700    11.1900    24.9980 ca         1 73S       0.384900
     13 N9           3.5590    11.6020    24.4300 ns         1 73S      -0.479900
     14 Cl           2.6720     9.0550    25.6560 cl         1 73S      -0.168000
     15 N11         -2.3650    11.8010    24.8010 nv         1 73S      -1.060900
     16 C16          6.9590    11.9580    24.5520 cp         1 73S      -0.040000
     17 C17          5.9340    11.3200    23.8440 ca         1 73S      -0.111300
     18 C18          4.7250    12.2540    23.8340 c5         1 73S       0.198300
     19 C19          6.5160    13.2970    24.9980 cp         1 73S       0.027000
     20 C20          5.1740    13.4820    24.6330 ca         1 73S      -0.118300
     21 C21          4.4440    14.6260    24.9730 ca         1 73S      -0.063000
     22 C22          5.0960    15.6270    25.7110 ca         1 73S      -0.115000
     23 C23          6.4530    15.4810    26.0670 ca         1 73S      -0.094000
     24 C24          7.1960    14.3260    25.7110 ca         1 73S      -0.103900
     25 C25          8.6260    14.3260    26.0220 cc         1 73S       0.471400
     26 N26          9.1390    14.7070    27.2600 na         1 73S      -0.315600
     27 N27          9.6180    14.0900    25.1370 nd         1 73S      -0.547100
     28 C28         10.7870    14.2930    25.8800 ca         1 73S       0.005400
     29 C29         10.4930    14.6650    27.1560 ca         1 73S      -0.049200
     30 C30         11.4990    14.9300    28.0890 ca         1 73S      -0.166000
     31 C31         12.8310    14.7930    27.6420 ca         1 73S       0.343900
     32 N32         13.1590    14.4240    26.3710 nb         1 73S      -0.684000
     33 C33         12.1420    14.1770    25.4940 ca         1 73S       0.403900
     34 H1          -0.0110     8.5480    26.4990 h4         1 73S       0.040100
     35 H3           7.4000     8.3330    23.1420 ha         1 73S       0.116000
     36 H4           5.2420     9.5590    22.7770 ha         1 73S       0.125000
     37 H5           8.9500    11.6640    25.4070 ha         1 73S       0.134000
     38 H6           3.6320    10.9080    25.1640 hn         1 73S       0.326500
     39 H7          -2.4310    12.5190    24.0810 hn         1 73S       0.507000
     40 H8          -3.2190    11.2900    25.0130 hn         1 73S       0.507000
     41 H9           4.5390    12.5540    22.7920 h1         1 73S       0.114700
     42 H10          3.4030    14.7380    24.6770 ha         1 73S       0.131000
     43 H11          4.5570    16.5300    25.9910 ha         1 73S       0.121000
     44 H12          6.9400    16.2950    26.6020 ha         1 73S       0.115000
     45 H13          8.5930    14.9590    28.0730 hn         1 73S       0.362000
     46 H15         11.2760    15.2280    29.1090 ha         1 73S       0.127000
     47 H16         13.6620    14.9850    28.3200 h4         1 73S       0.020100
     48 H17         12.4180    13.8840    24.4820 h4         1 73S       0.036100
     49 H2           9.2300     9.3940    24.4620 ha         1 73S       0.117000
@<TRIPOS>BOND
     1     1     2 ar  
     2     1     7 ar  
     3     1    34 1   
     4     2     3 ar  
     5     2    14 1   
     6     3     4 ar  
     7     3     5 1   
     8     4    12 ar  
     9     5    10 2   
    10     5    13 1   
    11     6     8 ar  
    12     6    11 ar  
    13     6    49 1   
    14     7    12 ar  
    15     8     9 ar  
    16     8    35 1   
    17     9    17 ar  
    18     9    36 1   
    19    11    16 ar  
    20    11    37 1   
    21    12    15 1   
    22    13    18 1   
    23    13    38 1   
    24    15    39 1   
    25    15    40 1   
    26    16    17 ar  
    27    16    19 1   
    28    17    18 1   
    29    18    20 1   
    30    18    41 1   
    31    19    20 ar  
    32    19    24 ar  
    33    20    21 ar  
    34    21    22 ar  
    35    21    42 1   
    36    22    23 ar  
    37    22    43 1   
    38    23    24 ar  
    39    23    44 1   
    40    24    25 1   
    41    25    26 1   
    42    25    27 2   
    43    26    29 1   
    44    26    45 1   
    45    27    28 1   
    46    28    29 ar  
    47    28    33 ar  
    48    29    30 ar  
    49    30    31 ar  
    50    30    46 1   
    51    31    32 ar  
    52    31    47 1   
    53    32    33 ar  
    54    33    48 1   
@<TRIPOS>SUBSTRUCTURE
     1 73S         1 TEMP              0 ****  ****    0 ROOT
