@<TRIPOS>MOLECULE
73S
   49    54     1     0     0
SMALL
abcg2


@<TRIPOS>ATOM
      1 C4          -0.0900     9.1350    25.1970 ca         1 73S       0.170900
      2 C5           1.0510     9.5690    24.5310 ca         1 73S      -0.047000
      3 C6           1.2020    10.9400    24.3660 ca         1 73S       0.127500
      4 N1           0.3030    11.8020    24.8220 nb         1 73S      -0.224000
      5 C7           2.3690    11.5310    23.6070 c          1 73S       0.518600
      6 C12          8.2480    10.0280    24.2570 ca         1 73S      -0.110000
      7 N3          -1.0000     9.9800    25.6570 nb         1 73S      -0.232000
      8 C13          7.1700     9.4010    23.6350 ca         1 73S      -0.102000
      9 C14          5.9720    10.0900    23.4490 ca         1 73S      -0.085000
     10 O8           2.2590    11.7730    22.4090 o          1 73S      -0.571100
     11 C15          8.1580    11.3450    24.7020 ca         1 73S      -0.065000
     12 C2          -0.7720    11.2940    25.4540 ca         1 73S       0.384900
     13 N9           3.4620    11.7600    24.3480 ns         1 73S      -0.479900
     14 CL           2.2250     8.4340    23.9320 cl         1 73S      -0.168000
     15 N11         -1.6770    12.1650    25.9410 nv         1 73S      -1.060900
     16 C16          6.9630    12.0390    24.5210 cp         1 73S      -0.040000
     17 C17          5.8820    11.3960    23.8940 ca         1 73S      -0.111300
     18 C18          4.6900    12.3240    23.8150 c5         1 73S       0.198300
     19 C19          6.5270    13.3900    24.9310 cp         1 73S       0.027000
     20 C20          5.1750    13.5420    24.5710 ca         1 73S      -0.118300
     21 C21          4.4420    14.6620    24.9110 ca         1 73S      -0.063000
     22 C22          5.0680    15.6740    25.6360 ca         1 73S      -0.115000
     23 C23          6.4070    15.5550    25.9830 ca         1 73S      -0.094000
     24 C24          7.1630    14.4280    25.6280 ca         1 73S      -0.103900
     25 C25          8.5850    14.4100    25.9900 cc         1 73S       0.471400
     26 N26          9.0100    14.7440    27.2570 na         1 73S      -0.315600
     27 N27          9.5910    14.1460    25.1840 nd         1 73S      -0.547100
     28 C28         10.7310    14.3010    25.9550 ca         1 73S       0.005400
     29 C29         10.3780    14.6770    27.2670 ca         1 73S      -0.049200
     30 C30         11.3530    14.8860    28.2350 ca         1 73S      -0.166000
     31 C31         12.6610    14.7040    27.8120 ca         1 73S       0.343900
     32 N32         13.0250    14.3470    26.5620 nb         1 73S      -0.684000
     33 C33         12.0810    14.1480    25.6450 ca         1 73S       0.403900
     34 H1          -0.2640     8.0760    25.3560 h4         1 73S       0.040100
     35 H3           7.2610     8.3770    23.2980 ha         1 73S       0.116000
     36 H4           5.1240     9.6100    22.9770 ha         1 73S       0.125000
     37 H5           9.0070    11.8140    25.1740 ha         1 73S       0.134000
     38 H6           3.4450    11.5080    25.3260 hn         1 73S       0.326500
     39 H7          -1.6090    13.1370    25.6890 hn         1 73S       0.507000
     40 H8          -2.5520    11.8160    26.2940 hn         1 73S       0.507000
     41 H9           4.4770    12.5840    22.7760 h1         1 73S       0.114700
     42 H10          3.3990    14.7430    24.6320 ha         1 73S       0.131000
     43 H11          4.5170    16.5600    25.9220 ha         1 73S       0.121000
     44 H12          6.8890    16.3600    26.5240 ha         1 73S       0.115000
     45 H13          8.4140    14.9520    28.0440 hn         1 73S       0.362000
     46 H15         11.1230    15.1730    29.2510 ha         1 73S       0.127000
     47 H16         13.4730    14.8520    28.5150 h4         1 73S       0.020100
     48 H17         12.3960    13.8610    24.6470 h4         1 73S       0.036100
     49 H2           9.1740     9.4830    24.3990 ha         1 73S       0.117000
@<TRIPOS>BOND
     1     1     2 ar  
     2     1     7 ar  
     3     1    34 1   
     4     2     3 ar  
     5     2    14 1   
     6     3     4 ar  
     7     3     5 1   
     8     4    12 ar  
     9     5    10 2   
    10     5    13 1   
    11     6     8 ar  
    12     6    11 ar  
    13     6    49 1   
    14     7    12 ar  
    15     8     9 ar  
    16     8    35 1   
    17     9    17 ar  
    18     9    36 1   
    19    11    16 ar  
    20    11    37 1   
    21    12    15 1   
    22    13    18 1   
    23    13    38 1   
    24    15    39 1   
    25    15    40 1   
    26    16    17 ar  
    27    16    19 1   
    28    17    18 1   
    29    18    20 1   
    30    18    41 1   
    31    19    20 ar  
    32    19    24 ar  
    33    20    21 ar  
    34    21    22 ar  
    35    21    42 1   
    36    22    23 ar  
    37    22    43 1   
    38    23    24 ar  
    39    23    44 1   
    40    24    25 1   
    41    25    26 1   
    42    25    27 2   
    43    26    29 1   
    44    26    45 1   
    45    27    28 1   
    46    28    29 ar  
    47    28    33 ar  
    48    29    30 ar  
    49    30    31 ar  
    50    30    46 1   
    51    31    32 ar  
    52    31    47 1   
    53    32    33 ar  
    54    33    48 1   
@<TRIPOS>SUBSTRUCTURE
     1 73S         1 TEMP              0 ****  ****    0 ROOT
