@<TRIPOS>MOLECULE
73T
   72    77     1     0     0
SMALL
No Charge or Current Charge


@<TRIPOS>ATOM
      1 C13         -1.6940    -1.2300    -0.8490 c6         1 73T      -0.001200
      2 C18         -0.5160     1.7450    -1.4150 cp         1 73T      -0.034000
      3 C15         -5.4990     3.2710     1.3340 c          1 73T       0.631700
      4 C19         -0.4470     1.8140    -2.8260 ca         1 73T      -0.075000
      5 C20          0.7100     1.4210    -3.5130 ca         1 73T      -0.113000
      6 C21          1.8180     0.9470    -2.7960 ca         1 73T      -0.079000
      7 C22          1.7780     0.8750    -1.3920 ca         1 73T       0.035600
      8 C23          0.6180     1.2830    -0.6870 ca         1 73T      -0.016300
      9 C11         -3.0180    -3.1250     0.2980 c6         1 73T      -0.084700
     10 C12         -2.2780    -2.6590    -1.0000 c6         1 73T      -0.073400
     11 C34          4.3210    -2.9010     0.5390 ca         1 73T      -0.032000
     12 C33          5.4980    -3.4310     1.0810 ca         1 73T      -0.128000
     13 C1          -3.8500     1.5520     0.4110 ca         1 73T      -0.016200
     14 C2          -2.6940     1.1860    -0.2380 ca         1 73T      -0.071800
     15 C3          -1.7810     2.1410    -0.7360 cp         1 73T      -0.005000
     16 C4          -2.1270     3.5040    -0.5490 ca         1 73T       0.133000
     17 C5          -3.3170     3.8800     0.1130 ca         1 73T      -0.108000
     18 C6          -4.2150     2.8990     0.6160 ca         1 73T      -0.144600
     19 N7          -4.5370     0.4110     0.7920 na         1 73T      -0.196700
     20 C8          -3.8350    -0.7340     0.3900 cc         1 73T      -0.053300
     21 C9          -2.7010    -0.2660    -0.2530 cd         1 73T      -0.136400
     22 C10         -4.2300    -2.1770     0.5770 c6         1 73T      -0.013200
     23 C14         -3.3960    -4.6600     0.3040 c3         1 73T       0.191000
     24 O16         -6.2840     2.4440     1.7720 o          1 73T      -0.642100
     25 N17         -5.7840     4.5800     1.4940 nt         1 73T      -0.597000
     26 O24         -2.2020    -5.4380     0.1930 oh         1 73T      -0.663000
     27 N25          2.9300     0.3700    -0.6970 n          1 73T      -0.297600
     28 C26          3.9580     1.2600    -0.3610 c          1 73T       0.622000
     29 N27          5.0680     0.7720     0.3680 n          1 73T      -0.301000
     30 C28          5.2350    -0.6310     0.6780 ca         1 73T       0.092600
     31 C29          4.1990    -1.5120     0.3060 ca         1 73T      -0.197600
     32 C30          2.9680    -0.9880    -0.3690 c          1 73T       0.594600
     33 C31          6.4610    -1.2010     1.1390 ca         1 73T       0.114000
     34 C32          6.5750    -2.5820     1.3600 ca         1 73T      -0.092000
     35 F35          7.5620    -0.4510     1.3770 f          1 73T      -0.175000
     36 O36          3.8780     2.4410    -0.6770 o          1 73T      -0.529000
     37 O37          2.0340    -1.7330    -0.6410 o          1 73T      -0.510000
     38 F38         -1.3020     4.4760    -0.9990 f          1 73T      -0.177000
     39 C39         -4.0520    -5.0910     1.6410 c3         1 73T      -0.102100
     40 C40         -4.3130    -5.0840    -0.8730 c3         1 73T      -0.102100
     41 C41          0.6110     1.2160     0.8440 c3         1 73T      -0.053800
     42 C42          5.9830     1.7800     0.9730 c3         1 73T       0.090300
     43 H50         -0.8040    -1.2750    -0.2080 hc         1 73T       0.059200
     44 H51         -1.3490    -0.8760    -1.8290 hc         1 73T       0.059200
     45 H54         -1.3080     2.1680    -3.3880 ha         1 73T       0.121000
     46 H55          0.7450     1.4750    -4.5990 ha         1 73T       0.119000
     47 H56          2.7110     0.6340    -3.3310 ha         1 73T       0.121000
     48 H47         -2.3130    -2.9980     1.1320 hc         1 73T       0.067700
     49 H49         -2.9750    -2.6690    -1.8500 hc         1 73T       0.041200
     50 H48         -1.4610    -3.3440    -1.2600 hc         1 73T       0.041200
     51 H59          5.5880    -4.5030     1.2500 ha         1 73T       0.130000
     52 H43         -3.5230     4.9400     0.2280 ha         1 73T       0.121000
     53 H44         -5.4240     0.4210     1.2860 hn         1 73T       0.381000
     54 H46         -5.0620    -2.4110    -0.0980 hc         1 73T       0.054200
     55 H45         -4.6050    -2.3310     1.5980 hc         1 73T       0.054200
     56 H53         -5.1550     5.2850     1.1440 hn         1 73T       0.318000
     57 H52         -6.6340     4.8410     1.9700 hn         1 73T       0.318000
     58 H57         -1.8060    -5.2240    -0.6780 ho         1 73T       0.442000
     59 H58          7.5080    -2.9930     1.7370 ha         1 73T       0.137000
     60 H61         -5.0460    -4.6440     1.7580 hc         1 73T       0.041867
     61 H62         -4.1750    -6.1800     1.6840 hc         1 73T       0.041867
     62 H63         -3.4360    -4.7860     2.4950 hc         1 73T       0.041867
     63 H64         -5.2810    -4.5730    -0.8280 hc         1 73T       0.041867
     64 H65         -3.8550    -4.8610    -1.8430 hc         1 73T       0.041867
     65 H66         -4.5100    -6.1630    -0.8420 hc         1 73T       0.041867
     66 H68          1.5070     1.6890     1.2640 hc         1 73T       0.051033
     67 H69         -0.2480     1.7280     1.2900 hc         1 73T       0.051033
     68 H67          0.5890     0.1770     1.1920 hc         1 73T       0.051033
     69 H70          5.5220     2.7750     1.0200 h1         1 73T       0.061367
     70 H71          6.2280     1.4930     2.0020 h1         1 73T       0.061367
     71 H72          6.9040     1.8480     0.3800 h1         1 73T       0.061367
     72 H60          3.5110    -3.5810     0.2790 ha         1 73T       0.145000
@<TRIPOS>BOND
     1     1    10 1   
     2     1    21 1   
     3     1    43 1   
     4     1    44 1   
     5     2     4 ar  
     6     2     8 ar  
     7     2    15 1   
     8     3    18 1   
     9     3    24 2   
    10     3    25 1   
    11     4     5 ar  
    12     4    45 1   
    13     5     6 ar  
    14     5    46 1   
    15     6     7 ar  
    16     6    47 1   
    17     7     8 ar  
    18     7    27 1   
    19     8    41 1   
    20     9    10 1   
    21     9    22 1   
    22     9    23 1   
    23     9    48 1   
    24    10    49 1   
    25    10    50 1   
    26    11    12 ar  
    27    11    31 ar  
    28    11    72 1   
    29    12    34 ar  
    30    12    51 1   
    31    13    14 ar  
    32    13    18 ar  
    33    13    19 1   
    34    14    15 ar  
    35    14    21 1   
    36    15    16 ar  
    37    16    17 ar  
    38    16    38 1   
    39    17    18 ar  
    40    17    52 1   
    41    19    20 1   
    42    19    53 1   
    43    20    21 2   
    44    20    22 1   
    45    22    54 1   
    46    22    55 1   
    47    23    26 1   
    48    23    39 1   
    49    23    40 1   
    50    25    56 1   
    51    25    57 1   
    52    26    58 1   
    53    27    28 1   
    54    27    32 1   
    55    28    29 1   
    56    28    36 2   
    57    29    30 1   
    58    29    42 1   
    59    30    31 ar  
    60    30    33 ar  
    61    31    32 1   
    62    32    37 2   
    63    33    34 ar  
    64    33    35 1   
    65    34    59 1   
    66    39    60 1   
    67    39    61 1   
    68    39    62 1   
    69    40    63 1   
    70    40    64 1   
    71    40    65 1   
    72    41    66 1   
    73    41    67 1   
    74    41    68 1   
    75    42    69 1   
    76    42    70 1   
    77    42    71 1   
@<TRIPOS>SUBSTRUCTURE
     1 73T         1 TEMP              0 ****  ****    0 ROOT
