@<TRIPOS>MOLECULE
73T
   72    77     1     0     0
SMALL
bcc


@<TRIPOS>ATOM
      1 C13         -1.6150    -1.3010    -0.7750 c6         1 73T      -0.001200
      2 C18         -0.4540     1.6990    -1.3850 cp         1 73T      -0.034000
      3 C15         -5.4580     3.2290     1.1960 c          1 73T       0.698700
      4 C19         -0.3840     1.7770    -2.7720 ca         1 73T      -0.093000
      5 C20          0.7590     1.3810    -3.4470 ca         1 73T      -0.131000
      6 C21          1.8390     0.9010    -2.7270 ca         1 73T      -0.097000
      7 C22          1.7680     0.8340    -1.3460 ca         1 73T       0.035600
      8 C23          0.6350     1.2310    -0.6400 ca         1 73T      -0.016300
      9 C11         -3.0370    -3.0560     0.3920 c6         1 73T      -0.084700
     10 C12         -2.2460    -2.6910    -0.8710 c6         1 73T      -0.073400
     11 C34          4.4710    -2.9160     0.1120 ca         1 73T      -0.050000
     12 C33          5.6660    -3.4080     0.5900 ca         1 73T      -0.146000
     13 C1          -3.8490     1.5180     0.3440 ca         1 73T      -0.016200
     14 C2          -2.6340     1.1130    -0.2690 ca         1 73T      -0.071800
     15 C3          -1.7220     2.0760    -0.7170 cp         1 73T      -0.005000
     16 C4          -2.0740     3.3960    -0.5290 ca         1 73T       0.097900
     17 C5          -3.2560     3.8040     0.0720 ca         1 73T      -0.126000
     18 C6          -4.1750     2.8670     0.5320 ca         1 73T      -0.144600
     19 N7          -4.5270     0.3850     0.6740 na         1 73T      -0.146400
     20 C8          -3.7980    -0.7100     0.3040 cc         1 73T      -0.053300
     21 C9          -2.6270    -0.3170    -0.2810 cd         1 73T      -0.136400
     22 C10         -4.2370    -2.1110     0.5350 c6         1 73T      -0.013200
     23 C14         -3.4300    -4.5500     0.4590 c3         1 73T       0.167800
     24 O16         -6.2720     2.3590     1.4930 o          1 73T      -0.642100
     25 N17         -5.6810     4.5240     1.4560 nt         1 73T      -0.664000
     26 O24         -2.2550    -5.3310     0.6540 oh         1 73T      -0.600800
     27 N25          2.9030     0.3100    -0.6480 n          1 73T      -0.431600
     28 C26          3.8050     1.2340    -0.1380 c          1 73T       0.831500
     29 N27          4.9030     0.7370     0.5150 n          1 73T      -0.368000
     30 C28          5.1940    -0.6210     0.5240 ca         1 73T       0.092600
     31 C29          4.2410    -1.5420     0.0740 ca         1 73T      -0.197600
     32 C30          2.9910    -1.0610    -0.5130 c          1 73T       0.737100
     33 C31          6.4150    -1.1580     0.9530 ca         1 73T       0.078900
     34 C32          6.6460    -2.5130     1.0020 ca         1 73T      -0.110000
     35 F35          7.4280    -0.3550     1.3100 f          1 73T      -0.139900
     36 O36          3.5910     2.4200    -0.2590 o          1 73T      -0.604500
     37 O37          2.0990    -1.7860    -0.8970 o          1 73T      -0.585500
     38 F38         -1.2200     4.3510    -0.9490 f          1 73T      -0.141900
     39 C39         -4.2970    -4.8250     1.6830 c3         1 73T      -0.102100
     40 C40         -4.1530    -5.0170    -0.8030 c3         1 73T      -0.102100
     41 C41          0.5910     1.1950     0.8580 c3         1 73T      -0.053800
     42 C42          5.7050     1.7070     1.2630 c3         1 73T       0.090300
     43 H50         -0.7500    -1.3330    -0.1070 hc         1 73T       0.059200
     44 H51         -1.2210    -1.0080    -1.7510 hc         1 73T       0.059200
     45 H54         -1.2420     2.1370    -3.3260 ha         1 73T       0.139000
     46 H55          0.8050     1.4400    -4.5260 ha         1 73T       0.137000
     47 H56          2.7400     0.5790    -3.2330 ha         1 73T       0.139000
     48 H47         -2.3810    -2.8800     1.2550 hc         1 73T       0.067700
     49 H49         -2.9100    -2.7220    -1.7400 hc         1 73T       0.041200
     50 H48         -1.4530    -3.4190    -1.0610 hc         1 73T       0.041200
     51 H59          5.8540    -4.4710     0.6270 ha         1 73T       0.148000
     52 H43         -3.4290     4.8690     0.1600 ha         1 73T       0.139000
     53 H44         -5.4280     0.3800     1.1230 hn         1 73T       0.330700
     54 H46         -5.0280    -2.3720    -0.1780 hc         1 73T       0.054200
     55 H45         -4.6810    -2.1970     1.5300 hc         1 73T       0.054200
     56 H53         -5.0250     5.2570     1.2580 hn         1 73T       0.318000
     57 H52         -6.5410     4.7950     1.9030 hn         1 73T       0.318000
     58 H57         -1.7150    -5.2840    -0.1420 ho         1 73T       0.403000
     59 H58          7.6080    -2.8630     1.3510 ha         1 73T       0.155000
     60 H61         -5.2880    -4.3850     1.5760 hc         1 73T       0.041867
     61 H62         -4.4310    -5.8990     1.8170 hc         1 73T       0.041867
     62 H63         -3.8470    -4.4230     2.5940 hc         1 73T       0.041867
     63 H64         -5.0260    -4.4030    -1.0260 hc         1 73T       0.041867
     64 H65         -3.5030    -4.9860    -1.6800 hc         1 73T       0.041867
     65 H66         -4.4970    -6.0470    -0.6860 hc         1 73T       0.041867
     66 H68          0.8680     2.1680     1.2710 hc         1 73T       0.051033
     67 H69         -0.4050     0.9590     1.2280 hc         1 73T       0.051033
     68 H67          1.2740     0.4600     1.2780 hc         1 73T       0.051033
     69 H70          5.1130     2.6020     1.4150 h1         1 73T       0.061367
     70 H71          5.9540     1.3040     2.2400 h1         1 73T       0.061367
     71 H72          6.6110     1.9820     0.7300 h1         1 73T       0.061367
     72 H60          3.7030    -3.5870    -0.2450 ha         1 73T       0.163000
@<TRIPOS>BOND
     1     1    10 1   
     2     1    21 1   
     3     1    43 1   
     4     1    44 1   
     5     2     4 ar  
     6     2     8 ar  
     7     2    15 1   
     8     3    18 1   
     9     3    24 2   
    10     3    25 1   
    11     4     5 ar  
    12     4    45 1   
    13     5     6 ar  
    14     5    46 1   
    15     6     7 ar  
    16     6    47 1   
    17     7     8 ar  
    18     7    27 1   
    19     8    41 1   
    20     9    10 1   
    21     9    22 1   
    22     9    23 1   
    23     9    48 1   
    24    10    49 1   
    25    10    50 1   
    26    11    12 ar  
    27    11    31 ar  
    28    11    72 1   
    29    12    34 ar  
    30    12    51 1   
    31    13    14 ar  
    32    13    18 ar  
    33    13    19 1   
    34    14    15 ar  
    35    14    21 1   
    36    15    16 ar  
    37    16    17 ar  
    38    16    38 1   
    39    17    18 ar  
    40    17    52 1   
    41    19    20 1   
    42    19    53 1   
    43    20    21 2   
    44    20    22 1   
    45    22    54 1   
    46    22    55 1   
    47    23    26 1   
    48    23    39 1   
    49    23    40 1   
    50    25    56 1   
    51    25    57 1   
    52    26    58 1   
    53    27    28 1   
    54    27    32 1   
    55    28    29 1   
    56    28    36 2   
    57    29    30 1   
    58    29    42 1   
    59    30    31 ar  
    60    30    33 ar  
    61    31    32 1   
    62    32    37 2   
    63    33    34 ar  
    64    33    35 1   
    65    34    59 1   
    66    39    60 1   
    67    39    61 1   
    68    39    62 1   
    69    40    63 1   
    70    40    64 1   
    71    40    65 1   
    72    41    66 1   
    73    41    67 1   
    74    41    68 1   
    75    42    69 1   
    76    42    70 1   
    77    42    71 1   
@<TRIPOS>SUBSTRUCTURE
     1 73T         1 TEMP              0 ****  ****    0 ROOT
