@<TRIPOS>MOLECULE
73U
   40    42     1     0     0
SMALL
bcc


@<TRIPOS>ATOM
      1 C10          3.9330    -1.5250    -0.6430 ca         1 73U      -0.212500
      2 C13         -1.1850     0.8910     0.2200 ca         1 73U       0.087600
      3 C15         -2.6600     2.9420     0.2010 c3         1 73U      -0.046800
      4 C17          1.0980     2.4050    -0.0270 ca         1 73U      -0.106000
      5 C20         -3.9090    -1.3590     1.4170 c          1 73U       0.721500
      6 C02          7.5200    -0.9100     0.1870 c3         1 73U       0.207100
      7 N04          6.2780    -1.5640    -0.1310 nu         1 73U      -0.768600
      8 C05          5.0790    -0.9160    -0.1030 ca         1 73U       0.196600
      9 C06          4.9260     0.3520     0.4790 ca         1 73U      -0.212500
     10 C07          3.6840     0.9620     0.5240 ca         1 73U      -0.064500
     11 C08          2.5430     0.3590    -0.0040 cp         1 73U      -0.106000
     12 C09          2.7040    -0.9010    -0.5910 ca         1 73U      -0.064500
     13 C11          1.2270     1.0170     0.0520 cp         1 73U      -0.004000
     14 C12          0.0560     0.2720     0.1840 ca         1 73U      -0.124000
     15 C14         -1.3180     2.2780     0.1460 ca         1 73U      -0.037300
     16 C16         -0.1450     3.0170     0.0260 ca         1 73U      -0.130000
     17 N18         -2.3650     0.1080     0.3830 nh         1 73U      -0.659900
     18 C19         -2.7370    -0.4430     1.6750 c5         1 73U       0.130800
     19 N22         -4.0490    -1.5310     0.0690 ns         1 73U      -0.666300
     20 S23         -2.8980    -0.7900    -0.8880 s6         1 73U       1.459500
     21 O24         -3.5160     0.0470    -1.8910 o          1 73U      -0.603300
     22 O25         -1.9330    -1.7630    -1.3600 o          1 73U      -0.603300
     23 H1           4.0180    -2.4960    -1.1180 ha         1 73U       0.131500
     24 H2          -3.1750     2.7290     1.1390 hc         1 73U       0.050700
     25 H3          -2.5590     4.0220     0.1150 hc         1 73U       0.050700
     26 H4          -3.3100     2.5980    -0.6040 hc         1 73U       0.050700
     27 H5           1.9780     3.0230    -0.1480 ha         1 73U       0.137000
     28 H6           7.5490    -0.5950     1.2320 h1         1 73U       0.035367
     29 H7           8.3320    -1.6170     0.0360 h1         1 73U       0.035367
     30 H8           7.7160    -0.0300    -0.4340 h1         1 73U       0.035367
     31 H9           6.3400    -2.3560    -0.7480 hn         1 73U       0.423800
     32 H10          5.7760     0.8640     0.9100 ha         1 73U       0.131500
     33 H11          3.6090     1.9310     1.0020 ha         1 73U       0.132000
     34 H12          1.8540    -1.3990    -1.0430 ha         1 73U       0.132000
     35 H13          0.1110    -0.8040     0.2880 ha         1 73U       0.148000
     36 H14         -0.2050     4.0960    -0.0370 ha         1 73U       0.137000
     37 H15         -3.0290     0.3560     2.3570 h1         1 73U       0.090700
     38 H16         -1.9290    -1.0180     2.1380 h1         1 73U       0.090700
     39 H17         -4.7370    -2.1530    -0.3440 hn         1 73U       0.357500
     40 O21         -4.6020    -1.8690     2.2580 o          1 73U      -0.559500
@<TRIPOS>BOND
     1     1     8 ar  
     2     1    12 ar  
     3     1    23 1   
     4     2    14 ar  
     5     2    15 ar  
     6     2    17 1   
     7     3    15 1   
     8     3    24 1   
     9     3    25 1   
    10     3    26 1   
    11     4    13 ar  
    12     4    16 ar  
    13     4    27 1   
    14     5    18 1   
    15     5    19 1   
    16     5    40 2   
    17     6     7 1   
    18     6    28 1   
    19     6    29 1   
    20     6    30 1   
    21     7     8 1   
    22     7    31 1   
    23     8     9 ar  
    24     9    10 ar  
    25     9    32 1   
    26    10    11 ar  
    27    10    33 1   
    28    11    12 ar  
    29    11    13 1   
    30    12    34 1   
    31    13    14 ar  
    32    14    35 1   
    33    15    16 ar  
    34    16    36 1   
    35    17    18 1   
    36    17    20 1   
    37    18    37 1   
    38    18    38 1   
    39    19    20 1   
    40    19    39 1   
    41    20    21 2   
    42    20    22 2   
@<TRIPOS>SUBSTRUCTURE
     1 73U         1 TEMP              0 ****  ****    0 ROOT
