@<TRIPOS>MOLECULE
73U
   40    42     1     0     0
SMALL
No Charge or Current Charge


@<TRIPOS>ATOM
      1 C10          3.9430    -1.5300    -0.6340 ca         1 73U      -0.194500
      2 C13         -1.2480     0.9500     0.2430 ca         1 73U       0.226000
      3 C15         -2.6890     3.0690     0.1300 c3         1 73U      -0.046800
      4 C17          1.0840     2.4720    -0.1690 ca         1 73U      -0.088000
      5 C20         -3.6970    -1.6850     1.4340 c          1 73U       0.579000
      6 C02          7.6100    -1.0480     0.3110 c3         1 73U       0.207100
      7 N04          6.3080    -1.5460    -0.1690 nu         1 73U      -0.962200
      8 C05          5.0770    -0.8900    -0.1160 ca         1 73U       0.335000
      9 C06          4.9500     0.3930     0.4410 ca         1 73U      -0.194500
     10 C07          3.6970     1.0290     0.4790 ca         1 73U      -0.046500
     11 C08          2.5390     0.3960    -0.0390 cp         1 73U      -0.106000
     12 C09          2.6880    -0.8980    -0.5960 ca         1 73U      -0.046500
     13 C11          1.2030     1.0720     0.0020 cp         1 73U      -0.004000
     14 C12          0.0150     0.3310     0.2100 ca         1 73U      -0.106000
     15 C14         -1.3420     2.3520     0.0790 ca         1 73U      -0.037300
     16 C16         -0.1690     3.1030    -0.1300 ca         1 73U      -0.112000
     17 N18         -2.3930     0.1650     0.4600 nh         1 73U      -0.798300
     18 C19         -2.6600    -0.5520     1.7560 c5         1 73U       0.130800
     19 N22         -3.8710    -1.7280     0.0950 ns         1 73U      -0.599300
     20 S23         -3.1380    -0.6180    -0.8640 s6         1 73U       1.317900
     21 O24         -4.1480     0.2680    -1.4440 o          1 73U      -0.532500
     22 O25         -2.1110    -1.2760    -1.6730 o          1 73U      -0.532500
     23 H1           4.0290    -2.5210    -1.0700 ha         1 73U       0.113500
     24 H2          -3.2930     2.7210     0.9760 hc         1 73U       0.050700
     25 H3          -2.5680     4.1530     0.2410 hc         1 73U       0.050700
     26 H4          -3.2610     2.8920    -0.7880 hc         1 73U       0.050700
     27 H5           1.9710     3.0750    -0.3450 ha         1 73U       0.119000
     28 H6           7.5710    -0.8430     1.3900 h1         1 73U       0.035367
     29 H7           8.3960    -1.7940     0.1300 h1         1 73U       0.035367
     30 H8           7.8850    -0.1220    -0.2120 h1         1 73U       0.035367
     31 H9           6.2950    -2.4760    -0.5940 hn         1 73U       0.479000
     32 H10          5.8150     0.9060     0.8500 ha         1 73U       0.113500
     33 H11          3.6220     2.0170     0.9280 ha         1 73U       0.114000
     34 H12          1.8270    -1.4130    -1.0170 ha         1 73U       0.114000
     35 H13          0.0710    -0.7430     0.3560 ha         1 73U       0.130000
     36 H14         -0.2280     4.1810    -0.2650 ha         1 73U       0.119000
     37 H15         -3.0950     0.1110     2.5140 h1         1 73U       0.090700
     38 H16         -1.7580    -1.0260     2.1630 h1         1 73U       0.090700
     39 H17         -4.5730    -2.2920    -0.3470 hn         1 73U       0.357500
     40 O21         -4.2870    -2.4230     2.2090 o          1 73U      -0.484000
@<TRIPOS>BOND
     1     1     8 ar  
     2     1    12 ar  
     3     1    23 1   
     4     2    14 ar  
     5     2    15 ar  
     6     2    17 1   
     7     3    15 1   
     8     3    24 1   
     9     3    25 1   
    10     3    26 1   
    11     4    13 ar  
    12     4    16 ar  
    13     4    27 1   
    14     5    18 1   
    15     5    19 1   
    16     5    40 2   
    17     6     7 1   
    18     6    28 1   
    19     6    29 1   
    20     6    30 1   
    21     7     8 1   
    22     7    31 1   
    23     8     9 ar  
    24     9    10 ar  
    25     9    32 1   
    26    10    11 ar  
    27    10    33 1   
    28    11    12 ar  
    29    11    13 1   
    30    12    34 1   
    31    13    14 ar  
    32    14    35 1   
    33    15    16 ar  
    34    16    36 1   
    35    17    18 1   
    36    17    20 1   
    37    18    37 1   
    38    18    38 1   
    39    19    20 1   
    40    19    39 1   
    41    20    21 2   
    42    20    22 2   
@<TRIPOS>SUBSTRUCTURE
     1 73U         1 TEMP              0 ****  ****    0 ROOT
