@<TRIPOS>MOLECULE
73V
   69    71     1     0     0
SMALL
No Charge or Current Charge


@<TRIPOS>ATOM
      1 C19          6.0190     6.7690    -0.1130 c3         1 73V      -0.088100
      2 C18          5.4230     5.4380    -0.6110 c3         1 73V      -0.095400
      3 C17          6.2050     4.2060    -0.1120 c3         1 73V       0.100000
      4 N3           5.6380     2.9520    -0.6140 ns         1 73V      -0.500900
      5 C10         -6.2010     1.3180     0.7250 ca         1 73V      -0.099300
      6 C15         -6.0610     2.6390     0.2530 ca         1 73V      -0.084500
      7 C14         -7.1630     3.3130    -0.3020 ca         1 73V      -0.115500
      8 C13         -8.4100     2.6720    -0.3910 ca         1 73V      -0.098000
      9 C12         -8.5540     1.3540     0.0750 ca         1 73V      -0.115500
     10 C11         -7.4530     0.6790     0.6300 ca         1 73V      -0.084500
     11 C9          -5.0090     0.5870     1.3260 c3         1 73V       0.214900
     12 O1           5.1810     0.2190    -1.3460 op         1 73V      -0.358000
     13 C3           4.4600    -0.2520    -0.1740 cx         1 73V       0.007300
     14 C4           3.5080    -1.4180    -0.3560 c          1 73V       0.611100
     15 O4           3.8280    -2.4620    -0.9090 o          1 73V      -0.591100
     16 C2           4.1160     1.0610    -0.8290 cx         1 73V       0.003300
     17 C16          4.5120     2.3360    -0.1120 c          1 73V       0.609100
     18 O2           3.8830     2.7790     0.8380 o          1 73V      -0.582100
     19 N1           2.2450    -1.2070     0.1560 ns         1 73V      -0.483900
     20 C5           1.1260    -2.1810     0.1160 c3         1 73V       0.039700
     21 C6          -0.2130    -1.4470    -0.2210 c          1 73V       0.597100
     22 O5          -0.3000    -0.2240    -0.1670 o          1 73V      -0.609100
     23 C20          1.0340    -3.0170     1.4350 c3         1 73V      -0.063700
     24 C22          0.8440    -2.1210     2.6950 c3         1 73V      -0.078400
     25 C21          2.2300    -3.9910     1.5800 c3         1 73V      -0.090100
     26 C23          0.5250    -2.8960     3.9920 c3         1 73V      -0.086100
     27 N2          -1.3540    -2.2190    -0.5380 n          1 73V      -0.402800
     28 C7          -2.7100    -1.6160    -0.6640 c5         1 73V       0.048700
     29 C8          -3.2560    -0.8960     0.6060 c          1 73V       0.599100
     30 O7          -4.3600    -0.1520     0.2780 os         1 73V      -0.436100
     31 O6          -2.7950    -0.9660     1.7400 o          1 73V      -0.483000
     32 C26         -3.5830    -2.8710    -0.9500 c5         1 73V      -0.085400
     33 C25         -2.6340    -3.7050    -1.8450 c5         1 73V      -0.096400
     34 C24         -1.2880    -3.5960    -1.0820 c5         1 73V       0.107000
     35 H191         7.0530     6.8850    -0.4590 hc         1 73V       0.037367
     36 H192         5.4330     7.6160    -0.4910 hc         1 73V       0.037367
     37 H193         6.0130     6.8110     0.9830 hc         1 73V       0.037367
     38 H181         4.3800     5.3690    -0.2790 hc         1 73V       0.043200
     39 H182         5.4110     5.4390    -1.7080 hc         1 73V       0.043200
     40 H171         7.2480     4.2750    -0.4480 h1         1 73V       0.055700
     41 H172         6.2050     4.1860     0.9860 h1         1 73V       0.055700
     42 HN3          6.0940     2.4850    -1.3900 hn         1 73V       0.315500
     43 H15         -5.0990     3.1430     0.3160 ha         1 73V       0.115000
     44 H14         -7.0490     4.3330    -0.6640 ha         1 73V       0.114500
     45 H13         -9.2620     3.1940    -0.8220 ha         1 73V       0.113000
     46 H12         -9.5180     0.8550     0.0040 ha         1 73V       0.114500
     47 H11         -7.5720    -0.3430     0.9860 ha         1 73V       0.115000
     48 H91         -5.3560    -0.0870     2.1210 h1         1 73V       0.056700
     49 H92         -4.3190     1.3130     1.7760 h1         1 73V       0.056700
     50 H3           5.0320    -0.2510     0.7530 h1         1 73V       0.114700
     51 H2           3.2310     1.1280    -1.4610 h1         1 73V       0.106700
     52 HN1          2.0640    -0.2960     0.5670 hn         1 73V       0.336500
     53 H5           1.3080    -2.8710    -0.7170 h1         1 73V       0.090700
     54 H20          0.1410    -3.6460     1.3600 hc         1 73V       0.051700
     55 H221         1.7430    -1.5160     2.8600 hc         1 73V       0.050200
     56 H222         0.0220    -1.4160     2.5180 hc         1 73V       0.050200
     57 H211         3.1580    -3.4480     1.7950 hc         1 73V       0.041033
     58 H212         2.0590    -4.7090     2.3900 hc         1 73V       0.041033
     59 H213         2.3740    -4.5670     0.6580 hc         1 73V       0.041033
     60 H231         1.3720    -3.5190     4.3020 hc         1 73V       0.033033
     61 H232         0.3090    -2.1960     4.8070 hc         1 73V       0.033033
     62 H233        -0.3520    -3.5400     3.8550 hc         1 73V       0.033033
     63 H7          -2.7430    -0.9060    -1.5020 h1         1 73V       0.089700
     64 H261        -4.5280    -2.6220    -1.4460 hc         1 73V       0.065700
     65 H262        -3.8280    -3.4120    -0.0270 hc         1 73V       0.065700
     66 H251        -2.5530    -3.2690    -2.8480 hc         1 73V       0.060200
     67 H252        -2.9640    -4.7430    -1.9650 hc         1 73V       0.060200
     68 H241        -0.4330    -3.7500    -1.7540 h1         1 73V       0.056700
     69 H242        -1.2350    -4.3350    -0.2720 h1         1 73V       0.056700
@<TRIPOS>BOND
     1     1     2 1   
     2     1    35 1   
     3     1    36 1   
     4     1    37 1   
     5     2     3 1   
     6     2    38 1   
     7     2    39 1   
     8     3     4 1   
     9     3    40 1   
    10     3    41 1   
    11     4    17 1   
    12     4    42 1   
    13     5     6 ar  
    14     5    10 ar  
    15     5    11 1   
    16     6     7 ar  
    17     6    43 1   
    18     7     8 ar  
    19     7    44 1   
    20     8     9 ar  
    21     8    45 1   
    22     9    10 ar  
    23     9    46 1   
    24    10    47 1   
    25    11    30 1   
    26    11    48 1   
    27    11    49 1   
    28    12    13 1   
    29    12    16 1   
    30    13    14 1   
    31    13    16 1   
    32    13    50 1   
    33    14    15 2   
    34    14    19 1   
    35    16    17 1   
    36    16    51 1   
    37    17    18 2   
    38    19    20 1   
    39    19    52 1   
    40    20    21 1   
    41    20    23 1   
    42    20    53 1   
    43    21    22 2   
    44    21    27 1   
    45    23    24 1   
    46    23    25 1   
    47    23    54 1   
    48    24    26 1   
    49    24    55 1   
    50    24    56 1   
    51    25    57 1   
    52    25    58 1   
    53    25    59 1   
    54    26    60 1   
    55    26    61 1   
    56    26    62 1   
    57    27    28 1   
    58    27    34 1   
    59    28    29 1   
    60    28    32 1   
    61    28    63 1   
    62    29    30 1   
    63    29    31 2   
    64    32    33 1   
    65    32    64 1   
    66    32    65 1   
    67    33    34 1   
    68    33    66 1   
    69    33    67 1   
    70    34    68 1   
    71    34    69 1   
@<TRIPOS>SUBSTRUCTURE
     1 73V         1 TEMP              0 ****  ****    0 ROOT
