@<TRIPOS>MOLECULE
73V
   69    71     1     0     0
SMALL
bcc


@<TRIPOS>ATOM
      1 C19          4.1550     6.7780    -1.5250 c3         1 73V      -0.088100
      2 C18          3.9930     5.2690    -1.6410 c3         1 73V      -0.095400
      3 C17          4.9120     4.5310    -0.6810 c3         1 73V       0.100000
      4 N3           4.7630     3.0960    -0.8180 ns         1 73V      -0.567900
      5 C10         -5.3980     1.5400     0.9930 ca         1 73V      -0.099300
      6 C15         -4.8270     2.7770     1.2740 ca         1 73V      -0.102500
      7 C14         -5.4420     3.9490     0.8530 ca         1 73V      -0.133500
      8 C13         -6.6350     3.8920     0.1440 ca         1 73V      -0.116000
      9 C12         -7.2100     2.6600    -0.1420 ca         1 73V      -0.133500
     10 C11         -6.5930     1.4910     0.2810 ca         1 73V      -0.102500
     11 C9          -4.7210     0.2760     1.4210 c3         1 73V       0.191700
     12 O1           5.4600    -0.1650     0.5430 op         1 73V      -0.311600
     13 C3           4.0800    -0.0650     0.7690 cx         1 73V      -0.015900
     14 C4           3.2560    -1.2140     0.2540 c          1 73V       0.678100
     15 O4           3.6630    -1.9380    -0.6380 o          1 73V      -0.591100
     16 C2           4.7620     0.7900    -0.2120 cx         1 73V      -0.019900
     17 C16          5.0240     2.2260     0.1620 c          1 73V       0.676100
     18 O2           5.4100     2.5310     1.2780 o          1 73V      -0.582100
     19 N1           2.0610    -1.3250     0.8520 ns         1 73V      -0.550900
     20 C5           1.0700    -2.3020     0.4790 c3         1 73V       0.039700
     21 C6          -0.2460    -1.5850     0.1950 c          1 73V       0.664100
     22 O5          -0.4650    -0.4590     0.6220 o          1 73V      -0.609100
     23 C20          0.9020    -3.4070     1.5480 c3         1 73V      -0.063700
     24 C22          0.3160    -2.8690     2.8560 c3         1 73V      -0.078400
     25 C21          2.2300    -4.1280     1.7570 c3         1 73V      -0.090100
     26 C23          0.1220    -3.9410     3.9210 c3         1 73V      -0.086100
     27 N2          -1.1690    -2.2500    -0.5170 n          1 73V      -0.469800
     28 C7          -2.4440    -1.6110    -0.7890 c5         1 73V       0.048700
     29 C8          -3.1650    -1.2400     0.4890 c          1 73V       0.648100
     30 O7          -3.8890    -0.1460     0.3240 os         1 73V      -0.412900
     31 O6          -3.1410    -1.8960     1.4980 o          1 73V      -0.532000
     32 C26         -3.2220    -2.6790    -1.5710 c5         1 73V      -0.085400
     33 C25         -2.1170    -3.4590    -2.2720 c5         1 73V      -0.096400
     34 C24         -1.0240    -3.5260    -1.2160 c5         1 73V       0.107000
     35 H191         5.1780     7.0860    -1.7520 hc         1 73V       0.037367
     36 H192         3.4940     7.2950    -2.2190 hc         1 73V       0.037367
     37 H193         3.9190     7.1270    -0.5190 hc         1 73V       0.037367
     38 H181         2.9570     4.9870    -1.4370 hc         1 73V       0.043200
     39 H182         4.2090     4.9570    -2.6670 hc         1 73V       0.043200
     40 H171         5.9520     4.8210    -0.8630 h1         1 73V       0.055700
     41 H172         4.6780     4.8090     0.3470 h1         1 73V       0.055700
     42 HN3          4.5090     2.7400    -1.7260 hn         1 73V       0.315500
     43 H15         -3.8990     2.8270     1.8320 ha         1 73V       0.133000
     44 H14         -4.9900     4.9060     1.0790 ha         1 73V       0.132500
     45 H13         -7.1170     4.8050    -0.1790 ha         1 73V       0.131000
     46 H12         -8.1410     2.6100    -0.6920 ha         1 73V       0.132500
     47 H11         -7.0480     0.5320     0.0620 ha         1 73V       0.133000
     48 H91         -5.4500    -0.5060     1.6450 h1         1 73V       0.056700
     49 H92         -4.1060     0.4370     2.3080 h1         1 73V       0.056700
     50 H3           3.7890     0.3690     1.7240 h1         1 73V       0.114700
     51 H2           4.6450     0.5610    -1.2700 h1         1 73V       0.106700
     52 HN1          1.8090    -0.6450     1.5530 hn         1 73V       0.336500
     53 H5           1.4250    -2.7770    -0.4360 h1         1 73V       0.090700
     54 H20          0.1930    -4.1330     1.1370 hc         1 73V       0.051700
     55 H221         0.9620    -2.0810     3.2560 hc         1 73V       0.050200
     56 H222        -0.6520    -2.4050     2.6560 hc         1 73V       0.050200
     57 H211         2.9540    -3.4900     2.2680 hc         1 73V       0.041033
     58 H212         2.0960    -5.0230     2.3630 hc         1 73V       0.041033
     59 H213         2.6680    -4.4400     0.8090 hc         1 73V       0.041033
     60 H231         1.0690    -4.3450     4.2760 hc         1 73V       0.033033
     61 H232        -0.4020    -3.5320     4.7850 hc         1 73V       0.033033
     62 H233        -0.4730    -4.7740     3.5410 hc         1 73V       0.033033
     63 H7          -2.3020    -0.7180    -1.4050 h1         1 73V       0.089700
     64 H261        -3.9430    -2.2320    -2.2530 hc         1 73V       0.065700
     65 H262        -3.7640    -3.3360    -0.8870 hc         1 73V       0.065700
     66 H251        -1.7620    -2.9130    -3.1480 hc         1 73V       0.060200
     67 H252        -2.4360    -4.4490    -2.5960 hc         1 73V       0.060200
     68 H241        -0.0320    -3.6320    -1.6540 h1         1 73V       0.056700
     69 H242        -1.1860    -4.3640    -0.5340 h1         1 73V       0.056700
@<TRIPOS>BOND
     1     1     2 1   
     2     1    35 1   
     3     1    36 1   
     4     1    37 1   
     5     2     3 1   
     6     2    38 1   
     7     2    39 1   
     8     3     4 1   
     9     3    40 1   
    10     3    41 1   
    11     4    17 1   
    12     4    42 1   
    13     5     6 ar  
    14     5    10 ar  
    15     5    11 1   
    16     6     7 ar  
    17     6    43 1   
    18     7     8 ar  
    19     7    44 1   
    20     8     9 ar  
    21     8    45 1   
    22     9    10 ar  
    23     9    46 1   
    24    10    47 1   
    25    11    30 1   
    26    11    48 1   
    27    11    49 1   
    28    12    13 1   
    29    12    16 1   
    30    13    14 1   
    31    13    16 1   
    32    13    50 1   
    33    14    15 2   
    34    14    19 1   
    35    16    17 1   
    36    16    51 1   
    37    17    18 2   
    38    19    20 1   
    39    19    52 1   
    40    20    21 1   
    41    20    23 1   
    42    20    53 1   
    43    21    22 2   
    44    21    27 1   
    45    23    24 1   
    46    23    25 1   
    47    23    54 1   
    48    24    26 1   
    49    24    55 1   
    50    24    56 1   
    51    25    57 1   
    52    25    58 1   
    53    25    59 1   
    54    26    60 1   
    55    26    61 1   
    56    26    62 1   
    57    27    28 1   
    58    27    34 1   
    59    28    29 1   
    60    28    32 1   
    61    28    63 1   
    62    29    30 1   
    63    29    31 2   
    64    32    33 1   
    65    32    64 1   
    66    32    65 1   
    67    33    34 1   
    68    33    66 1   
    69    33    67 1   
    70    34    68 1   
    71    34    69 1   
@<TRIPOS>SUBSTRUCTURE
     1 73V         1 TEMP              0 ****  ****    0 ROOT
