@<TRIPOS>MOLECULE
73X
   38    40     1     0     0
SMALL
abcg2


@<TRIPOS>ATOM
      1 C12          6.3590     0.4510    -0.1990 ca         1 73X       0.403900
      2 C13          4.6220    -0.7870     0.5880 ca         1 73X       0.424900
      3 C2          -4.6920    -0.5790    -0.1630 ca         1 73X       0.076000
      4 C1          -3.8800    -1.6370    -0.5330 ca         1 73X      -0.060000
      5 C3          -4.0880     0.6140     0.2190 ca         1 73X       0.155000
      6 CL          -5.0540     1.9690     0.6750 cl         1 73X      -0.179000
      7 C4          -2.7130     0.7460     0.2280 ca         1 73X      -0.157000
      8 C5          -1.8780    -0.3200    -0.1420 ca         1 73X       0.322000
      9 C           -2.5020    -1.5190    -0.5170 ca         1 73X      -0.174000
     10 N           -0.5030    -0.1600    -0.1620 nh         1 73X      -0.791400
     11 C9           0.3140    -1.2710    -0.6120 c6         1 73X       0.200300
     12 C8           1.7160    -0.8070    -0.9640 c6         1 73X       0.172800
     13 N1           2.3220    -0.1050     0.1540 nh         1 73X      -0.760400
     14 C7           1.5190     1.0430     0.5240 c6         1 73X       0.172800
     15 C6           0.1270     0.5900     0.9180 c6         1 73X       0.200300
     16 C10          3.7080     0.1270     0.0060 ca         1 73X      -0.005000
     17 N4           4.1620    -1.8660     1.2430 nv         1 73X      -1.058900
     18 N3           5.9340    -0.6170     0.4790 nb         1 73X      -0.326000
     19 N5           7.7010     0.6360    -0.2600 nv         1 73X      -1.050900
     20 N2           5.5930     1.3700    -0.7850 nb         1 73X      -0.273000
     21 C11          4.2780     1.1780    -0.6710 ca         1 73X       0.151900
     22 H1          -4.3270    -2.5770    -0.8260 ha         1 73X       0.128000
     23 H2          -2.3010     1.7050     0.5060 ha         1 73X       0.132000
     24 H3          -1.9250    -2.3890    -0.7940 ha         1 73X       0.120000
     25 H4           0.3700    -2.0640     0.1480 h1         1 73X       0.045950
     26 H5          -0.1190    -1.7060    -1.5130 h1         1 73X       0.045950
     27 H6           2.3140    -1.6850    -1.2120 h1         1 73X       0.046950
     28 H7           1.6770    -0.1720    -1.8630 h1         1 73X       0.046950
     29 H8           1.9780     1.5460     1.3770 h1         1 73X       0.046950
     30 H9           1.4310     1.7790    -0.2900 h1         1 73X       0.046950
     31 H10         -0.4550     1.4760     1.1610 h1         1 73X       0.045950
     32 H11          0.1840    -0.0250     1.8270 h1         1 73X       0.045950
     33 H12          3.1880    -1.8770     1.4970 hn         1 73X       0.494500
     34 H13          4.7990    -2.3980     1.8120 hn         1 73X       0.494500
     35 H14          8.0500     1.2780    -0.9510 hn         1 73X       0.487500
     36 H15          8.2940    -0.1460    -0.0440 hn         1 73X       0.487500
     37 H16          3.6470     1.9230    -1.1470 h4         1 73X       0.017100
     38 CL1         -6.4080    -0.7520    -0.1740 cl         1 73X      -0.177000
@<TRIPOS>BOND
     1     1    18 ar  
     2     1    19 1   
     3     1    20 ar  
     4     2    16 ar  
     5     2    17 1   
     6     2    18 ar  
     7     3     4 ar  
     8     3     5 ar  
     9     3    38 1   
    10     4     9 ar  
    11     4    22 1   
    12     5     6 1   
    13     5     7 ar  
    14     7     8 ar  
    15     7    23 1   
    16     8     9 ar  
    17     8    10 1   
    18     9    24 1   
    19    10    11 1   
    20    10    15 1   
    21    11    12 1   
    22    11    25 1   
    23    11    26 1   
    24    12    13 1   
    25    12    27 1   
    26    12    28 1   
    27    13    14 1   
    28    13    16 1   
    29    14    15 1   
    30    14    29 1   
    31    14    30 1   
    32    15    31 1   
    33    15    32 1   
    34    16    21 ar  
    35    17    33 1   
    36    17    34 1   
    37    19    35 1   
    38    19    36 1   
    39    20    21 ar  
    40    21    37 1   
@<TRIPOS>SUBSTRUCTURE
     1 73X         1 TEMP              0 ****  ****    0 ROOT
