@<TRIPOS>MOLECULE
73X
   38    40     1     0     0
SMALL
No Charge or Current Charge


@<TRIPOS>ATOM
      1 C12          6.4720     0.5140    -0.0590 ca         1 73X       0.403900
      2 C13          4.7320    -0.8950     0.2660 ca         1 73X       0.424900
      3 C2          -4.8230    -0.5440    -0.1410 ca         1 73X       0.076000
      4 C1          -4.0390    -1.7070    -0.0740 ca         1 73X      -0.060000
      5 C3          -4.1950     0.7170    -0.1880 ca         1 73X       0.155000
      6 Cl          -5.1440     2.2020    -0.2770 cl         1 73X      -0.179000
      7 C4          -2.7940     0.8070    -0.1670 ca         1 73X      -0.157000
      8 C5          -2.0020    -0.3520    -0.0990 ca         1 73X       0.322000
      9 C           -2.6360    -1.6110    -0.0550 ca         1 73X      -0.174000
     10 N           -0.5940    -0.2360    -0.0810 nh         1 73X      -0.791400
     11 C9           0.2860    -1.3390    -0.5860 c6         1 73X       0.200300
     12 C8           1.7100    -0.8390    -1.0030 c6         1 73X       0.172800
     13 N1           2.3810    -0.0250     0.0630 nh         1 73X      -0.760400
     14 C7           1.4970     1.0860     0.5460 c6         1 73X       0.172800
     15 C6           0.0750     0.5910     0.9740 c6         1 73X       0.200300
     16 C10          3.8040     0.1580     0.0180 ca         1 73X      -0.005000
     17 N4           4.3370    -2.1570     0.6030 nv         1 73X      -1.058900
     18 N3           6.0590    -0.7220     0.2320 nb         1 73X      -0.326000
     19 N5           7.8110     0.6940    -0.1000 nv         1 73X      -1.050900
     20 N2           5.7230     1.5940    -0.3140 nb         1 73X      -0.273000
     21 C11          4.3860     1.4150    -0.2720 ca         1 73X       0.151900
     22 H1          -4.5190    -2.6820    -0.0360 ha         1 73X       0.128000
     23 H2          -2.3220     1.7820    -0.2160 ha         1 73X       0.132000
     24 H3          -2.0480    -2.5210     0.0070 ha         1 73X       0.120000
     25 H4           0.4000    -2.1070     0.1930 h1         1 73X       0.045950
     26 H5          -0.1740    -1.8240    -1.4590 h1         1 73X       0.045950
     27 H6           2.3220    -1.7140    -1.2660 h1         1 73X       0.046950
     28 H7           1.6100    -0.2330    -1.9150 h1         1 73X       0.046950
     29 H8           1.9600     1.5920     1.4070 h1         1 73X       0.046950
     30 H9           1.3780     1.8370    -0.2480 h1         1 73X       0.046950
     31 H10         -0.5330     1.4720     1.2250 h1         1 73X       0.045950
     32 H11          0.1750    -0.0020     1.8940 h1         1 73X       0.045950
     33 H12          3.3650    -2.2410     0.8890 hn         1 73X       0.494500
     34 H13          5.0040    -2.7520     1.0840 hn         1 73X       0.494500
     35 H14          8.1720     1.5430    -0.5280 hn         1 73X       0.487500
     36 H15          8.4110    -0.1270    -0.1320 hn         1 73X       0.487500
     37 H16          3.7770     2.2930    -0.4820 h4         1 73X       0.017100
     38 Cl1         -6.5810    -0.6930    -0.1650 cl         1 73X      -0.177000
@<TRIPOS>BOND
     1     1    18 ar  
     2     1    19 1   
     3     1    20 ar  
     4     2    16 ar  
     5     2    17 1   
     6     2    18 ar  
     7     3     4 ar  
     8     3     5 ar  
     9     3    38 1   
    10     4     9 ar  
    11     4    22 1   
    12     5     6 1   
    13     5     7 ar  
    14     7     8 ar  
    15     7    23 1   
    16     8     9 ar  
    17     8    10 1   
    18     9    24 1   
    19    10    11 1   
    20    10    15 1   
    21    11    12 1   
    22    11    25 1   
    23    11    26 1   
    24    12    13 1   
    25    12    27 1   
    26    12    28 1   
    27    13    14 1   
    28    13    16 1   
    29    14    15 1   
    30    14    29 1   
    31    14    30 1   
    32    15    31 1   
    33    15    32 1   
    34    16    21 ar  
    35    17    33 1   
    36    17    34 1   
    37    19    35 1   
    38    19    36 1   
    39    20    21 ar  
    40    21    37 1   
@<TRIPOS>SUBSTRUCTURE
     1 73X         1 TEMP              0 ****  ****    0 ROOT
