@<TRIPOS>MOLECULE
73Y
   54    60     1     0     0
SMALL
bcc


@<TRIPOS>ATOM
      1 C4           2.4460    -1.6770    -0.3110 ca         1 73Y      -0.104000
      2 C5           1.5200    -0.6820    -0.6040 cp         1 73Y      -0.036000
      3 C6           0.2600    -1.0390    -1.0980 ca         1 73Y      -0.110300
      4 C7          -0.5840     0.1880    -1.3280 c5         1 73Y       0.197300
      5 C8           1.5510     0.7820    -0.4330 cp         1 73Y      -0.012000
      6 C9           0.2930     1.2860    -0.7840 ca         1 73Y      -0.115300
      7 C10         -0.0380     2.6150    -0.6170 ca         1 73Y      -0.091000
      8 C11          0.9270     3.4740    -0.1010 ca         1 73Y      -0.131000
      9 C12          2.1920     2.9960     0.2100 ca         1 73Y      -0.114000
     10 C13          2.5350     1.6520     0.0410 cq         1 73Y      -0.019000
     11 C15          3.9130     1.2280     0.3570 cq         1 73Y      -0.157300
     12 C1          -0.0870    -2.3580    -1.3120 ca         1 73Y      -0.099000
     13 C2           2.0990    -3.0060    -0.5250 ca         1 73Y      -0.127000
     14 C3           0.8460    -3.3490    -1.0230 ca         1 73Y      -0.126000
     15 N14         -1.8860     0.1430    -0.7140 ns         1 73Y      -0.542900
     16 C16         -5.1380    -0.8510    -0.3540 ca         1 73Y      -0.133200
     17 C17         -6.2900    -0.7040     0.4300 ca         1 73Y       0.445200
     18 N18         -6.6220     0.4260     1.0350 nb         1 73Y      -0.650000
     19 C19         -4.2540     0.2010    -0.5340 ca         1 73Y      -0.033600
     20 C20         -4.5920     1.3890     0.1030 ca         1 73Y      -0.023900
     21 C21         -5.7780     1.4220     0.8560 ca         1 73Y       0.407800
     22 N22         -5.8410     2.6930     1.3430 na         1 73Y      -0.362000
     23 C23         -4.7440     3.3430     0.8850 cc         1 73Y       0.433700
     24 N24         -3.9670     2.6050     0.1390 nd         1 73Y      -0.565100
     25 C25         -3.0350     0.1280    -1.4030 c          1 73Y       0.696700
     26 O26         -3.1290     0.0840    -2.6160 o          1 73Y      -0.570100
     27 C27          4.7370     0.6520    -0.5740 ca         1 73Y      -0.068000
     28 N28          5.6600     1.1470     2.0140 nb         1 73Y      -0.661000
     29 C29          4.4470     1.4570     1.6500 ca         1 73Y       0.428200
     30 C30          6.4780     0.5670     1.1040 ca         1 73Y       0.397600
     31 C31          6.0540     0.2960    -0.2200 ca         1 73Y      -0.150300
     32 C32          6.9520    -0.3100    -1.1280 ca         1 73Y      -0.108000
     33 C33          8.2200    -0.6330    -0.7290 ca         1 73Y      -0.126000
     34 C34          8.6430    -0.3630     0.5900 ca         1 73Y      -0.119000
     35 C35          7.7940     0.2230     1.4890 ca         1 73Y      -0.166300
     36 H1           3.4190    -1.4410     0.0920 ha         1 73Y       0.141000
     37 H2          -0.7340     0.3400    -2.4010 h1         1 73Y       0.110700
     38 H3          -1.0300     2.9750    -0.8620 ha         1 73Y       0.155000
     39 H4           0.6990     4.5210     0.0500 ha         1 73Y       0.135000
     40 H5           2.9410     3.6840     0.5830 ha         1 73Y       0.135000
     41 H6          -1.0680    -2.6220    -1.6870 ha         1 73Y       0.144000
     42 H7           2.8140    -3.7840    -0.2950 ha         1 73Y       0.132000
     43 H8           0.5940    -4.3890    -1.1780 ha         1 73Y       0.133000
     44 H9          -1.9260     0.1590     0.2940 hn         1 73Y       0.327500
     45 H10         -6.9620    -1.5430     0.5670 h4         1 73Y       0.042100
     46 H11         -6.5620     3.0830     1.9320 hn         1 73Y       0.324700
     47 H12         -4.5610     4.3770     1.1340 h5         1 73Y       0.070800
     48 H14          4.3870     0.4680    -1.5840 ha         1 73Y       0.146000
     49 H15          3.8140     1.9150     2.4050 h4         1 73Y       0.022100
     50 H16          6.6230    -0.5150    -2.1390 ha         1 73Y       0.135000
     51 H17          8.9060    -1.0980    -1.4250 ha         1 73Y       0.134000
     52 H18          9.6490    -0.6260     0.8890 ha         1 73Y       0.134000
     53 H19          8.1080     0.4340     2.5030 ha         1 73Y       0.149000
     54 BR3         -4.7870    -2.5310    -1.1270 br         1 73Y      -0.057100
@<TRIPOS>BOND
     1     1     2 ar  
     2     1    13 ar  
     3     1    36 1   
     4     2     3 ar  
     5     2     5 1   
     6     3     4 1   
     7     3    12 ar  
     8     4     6 1   
     9     4    15 1   
    10     4    37 1   
    11     5     6 ar  
    12     5    10 2   
    13     6     7 ar  
    14     7     8 ar  
    15     7    38 1   
    16     8     9 ar  
    17     8    39 1   
    18     9    10 1   
    19     9    40 1   
    20    10    11 1   
    21    11    27 1   
    22    11    29 2   
    23    12    14 ar  
    24    12    41 1   
    25    13    14 ar  
    26    13    42 1   
    27    14    43 1   
    28    15    25 1   
    29    15    44 1   
    30    16    17 ar  
    31    16    19 ar  
    32    16    54 1   
    33    17    18 ar  
    34    17    45 1   
    35    18    21 ar  
    36    19    20 ar  
    37    19    25 1   
    38    20    21 ar  
    39    20    24 1   
    40    21    22 1   
    41    22    23 1   
    42    22    46 1   
    43    23    24 2   
    44    23    47 1   
    45    25    26 2   
    46    27    31 ar  
    47    27    48 1   
    48    28    29 ar  
    49    28    30 ar  
    50    29    49 1   
    51    30    31 ar  
    52    30    35 ar  
    53    31    32 ar  
    54    32    33 ar  
    55    32    50 1   
    56    33    34 ar  
    57    33    51 1   
    58    34    35 ar  
    59    34    52 1   
    60    35    53 1   
@<TRIPOS>SUBSTRUCTURE
     1 73Y         1 TEMP              0 ****  ****    0 ROOT
