@<TRIPOS>MOLECULE
73Y
   54    60     1     0     0
SMALL
No Charge or Current Charge


@<TRIPOS>ATOM
      1 C4           2.2760    -1.4520    -0.0070 ca         1 73Y      -0.086000
      2 C5           1.4140    -0.4630    -0.5310 cp         1 73Y      -0.036000
      3 C6           0.2070    -0.8600    -1.1180 ca         1 73Y      -0.110300
      4 C7          -0.5630     0.4110    -1.4850 c5         1 73Y       0.197300
      5 C8           1.5250     1.0100    -0.5080 cp         1 73Y      -0.012000
      6 C9           0.3360     1.5520    -1.0030 ca         1 73Y      -0.115300
      7 C10          0.0920     2.9330    -0.9730 ca         1 73Y      -0.073000
      8 C11          1.0770     3.7890    -0.4310 ca         1 73Y      -0.113000
      9 C12          2.3120     3.2870     0.0450 ca         1 73Y      -0.096000
     10 C13          2.5780     1.9020    -0.0090 cq         1 73Y      -0.019000
     11 C15          3.9640     1.4500     0.3390 cq         1 73Y      -0.092000
     12 C1          -0.1590    -2.2060    -1.2600 ca         1 73Y      -0.081000
     13 C2           1.9310    -2.8130    -0.1420 ca         1 73Y      -0.109000
     14 C3           0.7240    -3.1890    -0.7730 ca         1 73Y      -0.108000
     15 N14         -1.8750     0.4700    -0.8430 ns         1 73Y      -0.475900
     16 C16         -5.5030    -0.5970    -1.1700 ca         1 73Y      -0.067900
     17 C17         -6.6980    -0.4490    -0.4280 ca         1 73Y       0.379900
     18 N18         -6.8010     0.3090     0.6890 nb         1 73Y      -0.650000
     19 C19         -4.3140     0.0790    -0.7480 ca         1 73Y      -0.033600
     20 C20         -4.4640     0.8610     0.4330 ca         1 73Y       0.041400
     21 C21         -5.6840     0.9340     1.0790 ca         1 73Y       0.342500
     22 N22         -5.4900     1.7490     2.1370 na         1 73Y      -0.412300
     23 C23         -4.1710     2.1700     2.1360 cc         1 73Y       0.433700
     24 N24         -3.5060     1.6400     1.0950 nd         1 73Y      -0.565100
     25 C25         -2.9840    -0.0230    -1.4990 c          1 73Y       0.629700
     26 O26         -2.8860    -0.4910    -2.6260 o          1 73Y      -0.570100
     27 C27          4.6950     0.6240    -0.5340 ca         1 73Y      -0.050000
     28 N28          5.8550     1.5200     1.8770 nb         1 73Y      -0.661000
     29 C29          4.5990     1.8790     1.5210 ca         1 73Y       0.362900
     30 C30          6.5510     0.7090     1.0480 ca         1 73Y       0.267000
     31 C31          6.0000     0.2420    -0.1730 ca         1 73Y      -0.085000
     32 C32          6.7470    -0.5970    -1.0220 ca         1 73Y      -0.090000
     33 C33          8.0490    -0.9800    -0.6630 ca         1 73Y      -0.108000
     34 C34          8.6060    -0.5250     0.5430 ca         1 73Y      -0.101000
     35 C35          7.8590     0.3140     1.3890 ca         1 73Y      -0.083000
     36 H1           3.1890    -1.1840     0.5130 ha         1 73Y       0.123000
     37 H2          -0.6390     0.4790    -2.5800 h1         1 73Y       0.110700
     38 H3          -0.8480     3.3370    -1.3450 ha         1 73Y       0.137000
     39 H4           0.8900     4.8610    -0.3990 ha         1 73Y       0.117000
     40 H5           3.0630     3.9870     0.4040 ha         1 73Y       0.117000
     41 H6          -1.1020    -2.4850    -1.7230 ha         1 73Y       0.126000
     42 H7           2.5950    -3.5790     0.2530 ha         1 73Y       0.114000
     43 H8           0.4670    -4.2420    -0.8670 ha         1 73Y       0.115000
     44 H9          -2.0390     0.8850     0.0680 hn         1 73Y       0.327500
     45 H10         -7.6050    -0.9650    -0.7400 h4         1 73Y       0.042100
     46 H11         -6.1910     2.0080     2.8150 hn         1 73Y       0.375000
     47 H12         -3.7670     2.8360     2.8890 h5         1 73Y       0.070800
     48 H14          4.2620     0.2830    -1.4720 ha         1 73Y       0.128000
     49 H15          4.0750     2.5310     2.2190 h4         1 73Y       0.022100
     50 H16          6.3210    -0.9530    -1.9580 ha         1 73Y       0.117000
     51 H17          8.6260    -1.6290    -1.3180 ha         1 73Y       0.116000
     52 H18          9.6140    -0.8210     0.8230 ha         1 73Y       0.116000
     53 H19          8.2960     0.6630     2.3210 ha         1 73Y       0.131000
     54 Br3         -5.6030    -1.7670    -2.6980 br         1 73Y      -0.057100
@<TRIPOS>BOND
     1     1     2 ar  
     2     1    13 ar  
     3     1    36 1   
     4     2     3 ar  
     5     2     5 1   
     6     3     4 1   
     7     3    12 ar  
     8     4     6 1   
     9     4    15 1   
    10     4    37 1   
    11     5     6 ar  
    12     5    10 2   
    13     6     7 ar  
    14     7     8 ar  
    15     7    38 1   
    16     8     9 ar  
    17     8    39 1   
    18     9    10 1   
    19     9    40 1   
    20    10    11 1   
    21    11    27 1   
    22    11    29 2   
    23    12    14 ar  
    24    12    41 1   
    25    13    14 ar  
    26    13    42 1   
    27    14    43 1   
    28    15    25 1   
    29    15    44 1   
    30    16    17 ar  
    31    16    19 ar  
    32    16    54 1   
    33    17    18 ar  
    34    17    45 1   
    35    18    21 ar  
    36    19    20 ar  
    37    19    25 1   
    38    20    21 ar  
    39    20    24 1   
    40    21    22 1   
    41    22    23 1   
    42    22    46 1   
    43    23    24 2   
    44    23    47 1   
    45    25    26 2   
    46    27    31 ar  
    47    27    48 1   
    48    28    29 ar  
    49    28    30 ar  
    50    29    49 1   
    51    30    31 ar  
    52    30    35 ar  
    53    31    32 ar  
    54    32    33 ar  
    55    32    50 1   
    56    33    34 ar  
    57    33    51 1   
    58    34    35 ar  
    59    34    52 1   
    60    35    53 1   
@<TRIPOS>SUBSTRUCTURE
     1 73Y         1 TEMP              0 ****  ****    0 ROOT
