@<TRIPOS>MOLECULE
73Z
   59    62     1     0     0
SMALL
abcg2


@<TRIPOS>ATOM
      1 C4          -4.6380    -1.6640    -0.0130 c          1 73Z       0.616700
      2 C5          -3.4190    -1.2590    -0.6750 cc         1 73Z      -0.257600
      3 C6          -2.6500    -0.2190    -0.1850 cd         1 73Z      -0.090300
      4 C8          -1.6390    -1.0420    -2.0000 cd         1 73Z      -0.205000
      5 C9          -2.7740    -1.7780    -1.8440 cc         1 73Z      -0.070300
      6 C13         -3.2340    -2.8910    -2.7240 c3         1 73Z      -0.017800
      7 C14         -0.5180     0.8410    -0.8560 ca         1 73Z       0.064800
      8 C15         -0.7770     2.2030    -0.9320 ca         1 73Z      -0.185000
      9 C1          -4.9160    -0.9620     1.3010 c6         1 73Z      -0.175400
     10 C2          -4.4310     0.4940     1.3860 c6         1 73Z      -0.032000
     11 C3          -2.9300     0.5530     1.0540 c6         1 73Z      -0.012100
     12 N7          -1.5740    -0.0910    -0.9950 na         1 73Z       0.114200
     13 O10         -5.3760    -2.5390    -0.4380 o          1 73Z      -0.543100
     14 C16          0.2910     3.0700    -0.8080 ca         1 73Z      -0.028000
     15 C17          1.6000     2.6300    -0.6210 ca         1 73Z      -0.247600
     16 C18          1.8540     1.2350    -0.5140 ca         1 73Z       0.403000
     17 C19          0.7590     0.3610    -0.6490 ca         1 73Z      -0.218000
     18 C20          2.7060     3.6200    -0.5000 c          1 73Z       0.632700
     19 N21          3.1090     0.7530    -0.3260 nu         1 73Z      -0.954200
     20 C22          3.4200    -0.6240    -0.0180 c6         1 73Z       0.228500
     21 C23          4.9070    -0.8650    -0.2550 c6         1 73Z      -0.088900
     22 C24          5.2950    -2.3140     0.0450 c6         1 73Z      -0.182400
     23 C25          4.8510    -2.7520     1.4180 c          1 73Z       0.572100
     24 C26          3.4090    -2.4540     1.7360 c6         1 73Z      -0.182400
     25 C27          3.0500    -1.0010     1.4190 c6         1 73Z      -0.088900
     26 O28          5.5900    -3.3190     2.1920 o          1 73Z      -0.511100
     27 N29          2.5130     4.8130    -1.0820 nt         1 73Z      -0.596000
     28 O30          3.7450     3.3690     0.1110 o          1 73Z      -0.640100
     29 H1          -0.8730    -1.0880    -2.7570 h4         1 73Z       0.151000
     30 H2          -6.2950     1.2900     0.6130 hc         1 73Z       0.037867
     31 H3          -4.9480     2.4220     0.5340 hc         1 73Z       0.037867
     32 H4          -5.0590     1.1040    -0.6280 hc         1 73Z       0.037867
     33 H5          -5.7070     0.9810     3.0730 hc         1 73Z       0.037867
     34 H6          -4.1080     0.3990     3.5370 hc         1 73Z       0.037867
     35 H7          -4.3050     2.0370     2.9100 hc         1 73Z       0.037867
     36 H8          -3.3330    -3.8250    -2.1700 hc         1 73Z       0.044367
     37 H9          -4.2100    -2.6790    -3.1620 hc         1 73Z       0.044367
     38 H10         -2.5300    -3.0570    -3.5370 hc         1 73Z       0.044367
     39 H11         -1.7790     2.5730    -1.0990 ha         1 73Z       0.134000
     40 H12         -5.9860    -1.0180     1.5140 hc         1 73Z       0.066700
     41 H13         -4.4130    -1.5500     2.0800 hc         1 73Z       0.066700
     42 H14         -2.3550     0.1210     1.8820 hc         1 73Z       0.058700
     43 H15         -2.6070     1.5930     0.9700 hc         1 73Z       0.058700
     44 H16          0.0840     4.1320    -0.8470 ha         1 73Z       0.113000
     45 H17          0.8980    -0.7080    -0.5710 ha         1 73Z       0.133000
     46 H18          3.7820     1.4450    -0.0250 hn         1 73Z       0.523000
     47 H19          2.8700    -1.2720    -0.7100 h1         1 73Z       0.059700
     48 H20          5.1650    -0.6250    -1.2870 hc         1 73Z       0.057950
     49 H21          5.4890    -0.1940     0.3850 hc         1 73Z       0.057950
     50 H22          4.8020    -2.9740    -0.6790 hc         1 73Z       0.069700
     51 H23          6.3700    -2.4600    -0.0650 hc         1 73Z       0.069700
     52 H24          2.7970    -3.1190     1.1160 hc         1 73Z       0.069700
     53 H25          3.1970    -2.6950     2.7770 hc         1 73Z       0.069700
     54 H26          3.5780    -0.3310     2.1050 hc         1 73Z       0.057950
     55 H27          1.9830    -0.8500     1.5940 hc         1 73Z       0.057950
     56 H28          1.7540     4.9980    -1.7140 hn         1 73Z       0.317000
     57 H29          3.2350     5.5120    -1.0200 hn         1 73Z       0.317000
     58 C11         -5.2240     1.3730     0.4160 c3         1 73Z      -0.087600
     59 C12         -4.6490     1.0050     2.8070 c3         1 73Z      -0.087600
@<TRIPOS>BOND
     1     1     2 1   
     2     1     9 1   
     3     1    13 2   
     4     2     3 2   
     5     2     5 1   
     6     3    11 1   
     7     3    12 1   
     8     4     5 2   
     9     4    12 1   
    10     4    29 1   
    11     5     6 1   
    12     6    36 1   
    13     6    37 1   
    14     6    38 1   
    15     7     8 ar  
    16     7    12 1   
    17     7    17 ar  
    18     8    14 ar  
    19     8    39 1   
    20     9    10 1   
    21     9    40 1   
    22     9    41 1   
    23    10    11 1   
    24    10    58 1   
    25    10    59 1   
    26    11    42 1   
    27    11    43 1   
    28    14    15 ar  
    29    14    44 1   
    30    15    16 ar  
    31    15    18 1   
    32    16    17 ar  
    33    16    19 1   
    34    17    45 1   
    35    18    27 1   
    36    18    28 2   
    37    19    20 1   
    38    19    46 1   
    39    20    21 1   
    40    20    25 1   
    41    20    47 1   
    42    21    22 1   
    43    21    48 1   
    44    21    49 1   
    45    22    23 1   
    46    22    50 1   
    47    22    51 1   
    48    23    24 1   
    49    23    26 2   
    50    24    25 1   
    51    24    52 1   
    52    24    53 1   
    53    25    54 1   
    54    25    55 1   
    55    27    56 1   
    56    27    57 1   
    57    30    58 1   
    58    31    58 1   
    59    32    58 1   
    60    33    59 1   
    61    34    59 1   
    62    35    59 1   
@<TRIPOS>SUBSTRUCTURE
     1 73Z         1 TEMP              0 ****  ****    0 ROOT
