@<TRIPOS>MOLECULE
73Z
   59    62     1     0     0
SMALL
No Charge or Current Charge


@<TRIPOS>ATOM
      1 C4          -3.8250    -2.0620    -0.3910 c          1 73Z       0.616700
      2 C5          -3.1150    -1.0620    -1.2300 cc         1 73Z      -0.257600
      3 C6          -2.4250    -0.0160    -0.6820 cd         1 73Z      -0.090300
      4 C8          -2.2030     0.0550    -2.9750 cd         1 73Z      -0.205000
      5 C9          -2.9970    -1.0190    -2.6510 cc         1 73Z      -0.070300
      6 C13         -3.5780    -2.0380    -3.5950 c3         1 73Z      -0.017800
      7 C14         -0.7250     1.3270    -1.6330 ca         1 73Z       0.064800
      8 C15         -0.5930     2.7110    -1.8040 ca         1 73Z      -0.185000
      9 C1          -3.6300    -1.8860     1.1300 c6         1 73Z      -0.175400
     10 C2          -3.4480    -0.4060     1.5970 c6         1 73Z      -0.032000
     11 C3          -2.2810     0.2550     0.7980 c6         1 73Z      -0.012100
     12 N7          -1.9750     0.7220    -1.7730 na         1 73Z       0.114200
     13 O10         -4.5300    -2.9590    -0.8370 o          1 73Z      -0.543100
     14 C16          0.6550     3.3320    -1.6470 ca         1 73Z      -0.028000
     15 C17          1.8050     2.5770    -1.3000 ca         1 73Z      -0.247600
     16 C18          1.6580     1.1810    -1.1200 ca         1 73Z       0.403000
     17 C19          0.4100     0.5690    -1.3050 ca         1 73Z      -0.218000
     18 C20          3.1440     3.2620    -1.1250 c          1 73Z       0.632700
     19 N21          2.7380     0.3880    -0.7430 nu         1 73Z      -0.954200
     20 C22          2.6670    -0.6560     0.2870 c6         1 73Z       0.228500
     21 C23          4.0640    -1.3120     0.4330 c6         1 73Z      -0.088900
     22 C24          4.0840    -2.3900     1.5510 c6         1 73Z      -0.182400
     23 C25          3.5220    -1.8570     2.8780 c          1 73Z       0.572100
     24 C26          2.1880    -1.1030     2.7770 c6         1 73Z      -0.182400
     25 C27          2.2000    -0.0460     1.6380 c6         1 73Z      -0.088900
     26 O28          4.1250    -1.9750     3.9360 o          1 73Z      -0.511100
     27 N29          3.1890     4.6070    -1.2190 nt         1 73Z      -0.596000
     28 O30          4.1900     2.6690    -0.9160 o          1 73Z      -0.640100
     29 H1          -1.8090     0.3920    -3.9260 h4         1 73Z       0.151000
     30 H2          -5.6050    -0.0660     1.9390 hc         1 73Z       0.037867
     31 H3          -4.6780     1.4260     1.7320 hc         1 73Z       0.037867
     32 H4          -5.0660     0.4250     0.3300 hc         1 73Z       0.037867
     33 H5          -3.9340    -0.8230     3.7110 hc         1 73Z       0.037867
     34 H6          -2.2060    -0.9200     3.3490 hc         1 73Z       0.037867
     35 H7          -2.9920     0.6580     3.4780 hc         1 73Z       0.037867
     36 H8          -3.2010    -3.0420    -3.3680 hc         1 73Z       0.044367
     37 H9          -4.6720    -2.0570    -3.5260 hc         1 73Z       0.044367
     38 H10         -3.3120    -1.8070    -4.6330 hc         1 73Z       0.044367
     39 H11         -1.4640     3.3110    -2.0610 ha         1 73Z       0.134000
     40 H12         -4.4240    -2.4170     1.6700 hc         1 73Z       0.066700
     41 H13         -2.6880    -2.4040     1.3550 hc         1 73Z       0.066700
     42 H14         -1.3190    -0.1480     1.1440 hc         1 73Z       0.058700
     43 H15         -2.2460     1.3350     0.9940 hc         1 73Z       0.058700
     44 H16          0.7070     4.4070    -1.8000 ha         1 73Z       0.113000
     45 H17          0.3090    -0.5040    -1.1850 ha         1 73Z       0.133000
     46 H18          3.6020     0.9450    -0.7500 hn         1 73Z       0.523000
     47 H19          1.9530    -1.4390    -0.0120 h1         1 73Z       0.059700
     48 H20          4.3640    -1.7660    -0.5220 hc         1 73Z       0.057950
     49 H21          4.8150    -0.5420     0.6610 hc         1 73Z       0.057950
     50 H22          3.3900    -3.1720     1.2150 hc         1 73Z       0.069700
     51 H23          5.0800    -2.8290     1.7010 hc         1 73Z       0.069700
     52 H24          1.4360    -1.8450     2.4770 hc         1 73Z       0.069700
     53 H25          1.9090    -0.6760     3.7490 hc         1 73Z       0.069700
     54 H26          2.8650     0.7830     1.9200 hc         1 73Z       0.057950
     55 H27          1.1950     0.3850     1.5340 hc         1 73Z       0.057950
     56 H28          2.3480     5.1360    -1.3860 hn         1 73Z       0.317000
     57 H29          4.0760     5.0740    -1.1090 hn         1 73Z       0.317000
     58 C11         -4.7740     0.3890     1.3860 c3         1 73Z      -0.087600
     59 C12         -3.1270    -0.3700     3.1210 c3         1 73Z      -0.087600
@<TRIPOS>BOND
     1     1     2 1   
     2     1     9 1   
     3     1    13 2   
     4     2     3 2   
     5     2     5 1   
     6     3    11 1   
     7     3    12 1   
     8     4     5 2   
     9     4    12 1   
    10     4    29 1   
    11     5     6 1   
    12     6    36 1   
    13     6    37 1   
    14     6    38 1   
    15     7     8 ar  
    16     7    12 1   
    17     7    17 ar  
    18     8    14 ar  
    19     8    39 1   
    20     9    10 1   
    21     9    40 1   
    22     9    41 1   
    23    10    11 1   
    24    10    58 1   
    25    10    59 1   
    26    11    42 1   
    27    11    43 1   
    28    14    15 ar  
    29    14    44 1   
    30    15    16 ar  
    31    15    18 1   
    32    16    17 ar  
    33    16    19 1   
    34    17    45 1   
    35    18    27 1   
    36    18    28 2   
    37    19    20 1   
    38    19    46 1   
    39    20    21 1   
    40    20    25 1   
    41    20    47 1   
    42    21    22 1   
    43    21    48 1   
    44    21    49 1   
    45    22    23 1   
    46    22    50 1   
    47    22    51 1   
    48    23    24 1   
    49    23    26 2   
    50    24    25 1   
    51    24    52 1   
    52    24    53 1   
    53    25    54 1   
    54    25    55 1   
    55    27    56 1   
    56    27    57 1   
    57    30    58 1   
    58    31    58 1   
    59    32    58 1   
    60    33    59 1   
    61    34    59 1   
    62    35    59 1   
@<TRIPOS>SUBSTRUCTURE
     1 73Z         1 TEMP              0 ****  ****    0 ROOT
