@<TRIPOS>MOLECULE
740
   59    63     1     0     0
SMALL
bcc


@<TRIPOS>ATOM
      1 C1          -5.8200    -0.5040     0.2170 ca         1 740       0.165600
      2 C2          -4.8490    -1.1650    -0.5430 ca         1 740      -0.180000
      3 C3          -3.5100    -1.1410    -0.1720 ca         1 740      -0.079500
      4 C4          -3.0820    -0.4830     0.9710 ca         1 740      -0.111300
      5 C5          -4.0500     0.1640     1.7380 ca         1 740      -0.079500
      6 C6          -5.3820     0.1600     1.3740 ca         1 740      -0.180000
      7 C7          -1.6360    -0.4420     1.3530 c3         1 740      -0.102100
      8 C8          -0.9430     0.8310     0.8930 c          1 740       0.671100
      9 N9           0.4080     0.7960     1.0740 ns         1 740      -0.484400
     10 C10          1.3130     1.7940     0.7500 cc         1 740       0.435500
     11 N11          1.0160     3.0660     0.6950 nd         1 740      -0.509100
     12 N12          2.1470     3.7040     0.3610 na         1 740      -0.007100
     13 C13          3.1900     2.8640     0.2070 ca         1 740      -0.013200
     14 C14          4.5310     3.0820    -0.1320 ca         1 740      -0.144000
     15 C15          5.3370     1.9750    -0.2240 ca         1 740      -0.087000
     16 C16          4.8480     0.6710     0.0280 ca         1 740       0.048600
     17 C17          3.5290     0.4610     0.3630 ca         1 740      -0.013000
     18 C18          2.6900     1.5750     0.4520 ca         1 740      -0.260900
     19 N19          5.7100    -0.4480    -0.0980 nh         1 740      -0.625900
     20 C22          6.9640    -0.5480     0.6560 c5         1 740       0.213800
     21 O24         -1.5280     1.7830     0.4260 o          1 740      -0.529100
     22 C9           7.9410    -1.3700    -0.1970 c5         1 740      -0.085400
     23 S1           5.7950    -1.1570    -1.6030 s6         1 740       1.209900
     24 C12          7.1030    -2.2610    -1.0990 c5         1 740      -0.207600
     25 O2           4.5340    -1.8250    -1.8950 o          1 740      -0.598300
     26 O3           6.2850    -0.2230    -2.6130 o          1 740      -0.598300
     27 C11         -7.5290    -0.9810    -1.4550 c6         1 740       0.200300
     28 N1          -7.1660    -0.4620    -0.1480 nh         1 740      -0.651000
     29 C19         -8.1400    -0.7990     0.8860 c6         1 740       0.200300
     30 C20         -9.5310    -0.3040     0.5260 c6         1 740      -0.080900
     31 C21         -9.9610    -0.8370    -0.8330 c6         1 740      -0.074400
     32 C23         -8.9080    -0.4930    -1.8740 c6         1 740      -0.080900
     33 H71         -1.5200    -0.5050     2.4400 hc         1 740       0.062200
     34 H72         -1.1030    -1.3060     0.9470 hc         1 740       0.062200
     35 H5          -3.7570     0.6910     2.6390 ha         1 740       0.126500
     36 H6          -6.0890     0.7040     1.9890 ha         1 740       0.132000
     37 H2          -5.1210    -1.7170    -1.4320 ha         1 740       0.132000
     38 H3          -2.7910    -1.6680    -0.7890 ha         1 740       0.126500
     39 H191        -8.1680    -1.8900     1.0370 h1         1 740       0.036200
     40 H192        -7.8340    -0.3600     1.8330 h1         1 740       0.036200
     41 H201       -10.2280    -0.6150     1.3070 hc         1 740       0.048450
     42 H202        -9.5310     0.7900     0.5120 hc         1 740       0.048450
     43 H211       -10.0810    -1.9240    -0.7780 hc         1 740       0.040200
     44 H212       -10.9330    -0.4280    -1.1180 hc         1 740       0.040200
     45 H231        -8.8720     0.5910    -2.0170 hc         1 740       0.048450
     46 H232        -9.1570    -0.9340    -2.8420 hc         1 740       0.048450
     47 H112        -7.5080    -2.0840    -1.4710 h1         1 740       0.036200
     48 HN9          0.8070    -0.0620     1.4230 hn         1 740       0.323500
     49 H12          2.1340     4.7040     0.2490 hn         1 740       0.333700
     50 H14          4.9160     4.0740    -0.3250 ha         1 740       0.145000
     51 H15          6.3780     2.1020    -0.4930 ha         1 740       0.141000
     52 H17          3.1710    -0.5410     0.5580 ha         1 740       0.151000
     53 H221         7.3770     0.4380     0.8690 h1         1 740       0.059200
     54 H222         6.7580    -1.0420     1.6070 h1         1 740       0.059200
     55 H91          8.5630    -0.7120    -0.8030 hc         1 740       0.071700
     56 H92          8.6000    -1.9650     0.4320 hc         1 740       0.071700
     57 H121         7.6210    -2.6280    -1.9830 h1         1 740       0.111200
     58 H122         6.6480    -3.0960    -0.5640 h1         1 740       0.111200
     59 H111        -6.7970    -0.6380    -2.1880 h1         1 740       0.036200
@<TRIPOS>BOND
     1     1     2 ar  
     2     1     6 ar  
     3     1    28 1   
     4     2     3 ar  
     5     2    37 1   
     6     3     4 ar  
     7     3    38 1   
     8     4     5 ar  
     9     4     7 1   
    10     5     6 ar  
    11     5    35 1   
    12     6    36 1   
    13     7     8 1   
    14     7    33 1   
    15     7    34 1   
    16     8     9 1   
    17     8    21 2   
    18     9    10 1   
    19     9    48 1   
    20    10    11 2   
    21    10    18 1   
    22    11    12 1   
    23    12    13 1   
    24    12    49 1   
    25    13    14 ar  
    26    13    18 ar  
    27    14    15 ar  
    28    14    50 1   
    29    15    16 ar  
    30    15    51 1   
    31    16    17 ar  
    32    16    19 1   
    33    17    18 ar  
    34    17    52 1   
    35    19    20 1   
    36    19    23 1   
    37    20    22 1   
    38    20    53 1   
    39    20    54 1   
    40    22    24 1   
    41    22    55 1   
    42    22    56 1   
    43    23    24 1   
    44    23    25 2   
    45    23    26 2   
    46    24    57 1   
    47    24    58 1   
    48    27    28 1   
    49    27    32 1   
    50    27    47 1   
    51    27    59 1   
    52    28    29 1   
    53    29    30 1   
    54    29    39 1   
    55    29    40 1   
    56    30    31 1   
    57    30    41 1   
    58    30    42 1   
    59    31    32 1   
    60    31    43 1   
    61    31    44 1   
    62    32    45 1   
    63    32    46 1   
@<TRIPOS>SUBSTRUCTURE
     1 740         1 TEMP              0 ****  ****    0 ROOT
