@<TRIPOS>MOLECULE
740
   59    63     1     0     0
SMALL
No Charge or Current Charge


@<TRIPOS>ATOM
      1 C1          -4.9400    -0.4860     0.5540 ca         1 740       0.304000
      2 C2          -3.6580    -1.0320     0.3440 ca         1 740      -0.162000
      3 C3          -2.5920    -0.7100     1.2030 ca         1 740      -0.061500
      4 C4          -2.7940     0.1650     2.2870 ca         1 740      -0.111300
      5 C5          -4.0720     0.7150     2.4990 ca         1 740      -0.061500
      6 C6          -5.1340     0.3890     1.6380 ca         1 740      -0.162000
      7 C7          -1.6380     0.5230     3.2170 c3         1 740      -0.102100
      8 C8          -0.9280     1.7980     2.7390 c          1 740       0.604100
      9 N9           0.2340     1.5720     2.0360 ns         1 740      -0.417400
     10 C10          1.0850     2.4870     1.4620 cc         1 740       0.435500
     11 N11          0.9670     3.8190     1.4900 nd         1 740      -0.509100
     12 N12          2.0910     4.2420     0.7630 na         1 740      -0.057400
     13 C13          2.8530     3.1810     0.3180 ca         1 740      -0.013200
     14 C14          4.0370     3.1580    -0.4240 ca         1 740      -0.126000
     15 C15          4.5930     1.8940    -0.7280 ca         1 740      -0.069000
     16 C16          3.9700     0.6910    -0.2970 ca         1 740       0.187000
     17 C17          2.7700     0.7700     0.4580 ca         1 740       0.005000
     18 C18          2.2470     2.0420     0.7410 ca         1 740      -0.260900
     19 N19          4.5560    -0.5550    -0.6180 nh         1 740      -0.764300
     20 C22          6.0030    -0.8500    -0.4650 c5         1 740       0.213800
     21 O24         -1.3860     2.9110     2.9620 o          1 740      -0.529100
     22 C9           6.2940    -1.8640    -1.6080 c5         1 740      -0.085400
     23 S1           3.6270    -1.8170    -1.3510 s6         1 740       1.179100
     24 C12          5.1250    -2.8820    -1.4750 c5         1 740      -0.318400
     25 O2           2.6790    -2.3320    -0.3580 o          1 740      -0.527500
     26 O3           3.1850    -1.3320    -2.6630 o          1 740      -0.527500
     27 C11         -5.7990    -1.1500    -1.7320 c6         1 740       0.200300
     28 N1          -6.0240    -0.7990    -0.3000 nh         1 740      -0.789400
     29 C19         -7.2710    -1.3810     0.2730 c6         1 740       0.200300
     30 C20         -8.5110    -0.9880    -0.5670 c6         1 740      -0.080900
     31 C21         -8.3260    -1.3750    -2.0530 c6         1 740      -0.074400
     32 C23         -7.0180    -0.7590    -2.6030 c6         1 740      -0.080900
     33 H71         -2.0230     0.6950     4.2290 hc         1 740       0.062200
     34 H72         -0.9280    -0.3130     3.2410 hc         1 740       0.062200
     35 H5          -4.2430     1.3980     3.3280 ha         1 740       0.108500
     36 H6          -6.1110     0.8300     1.8080 ha         1 740       0.114000
     37 H2          -3.4810    -1.7190    -0.4780 ha         1 740       0.114000
     38 H3          -1.6110    -1.1460     1.0240 ha         1 740       0.108500
     39 H191        -7.1870    -2.4780     0.3030 h1         1 740       0.036200
     40 H192        -7.4240    -1.0400     1.3070 h1         1 740       0.036200
     41 H201        -9.4050    -1.4770    -0.1590 hc         1 740       0.048450
     42 H202        -8.6800     0.0950    -0.4840 hc         1 740       0.048450
     43 H211        -8.2920    -2.4690    -2.1520 hc         1 740       0.040200
     44 H212        -9.1850    -1.0290    -2.6440 hc         1 740       0.040200
     45 H231        -7.1090     0.3360    -2.6320 hc         1 740       0.048450
     46 H232        -6.8540    -1.0860    -3.6390 hc         1 740       0.048450
     47 H112        -5.6140    -2.2300    -1.8280 h1         1 740       0.036200
     48 HN9          0.4760     0.5990     1.9250 hn         1 740       0.323500
     49 H12          2.2850     5.2300     0.6050 hn         1 740       0.384000
     50 H14          4.5140     4.0760    -0.7580 ha         1 740       0.127000
     51 H15          5.5050     1.8500    -1.3160 ha         1 740       0.123000
     52 H17          2.2790    -0.1250     0.8250 ha         1 740       0.133000
     53 H221         6.6330     0.0440    -0.5640 h1         1 740       0.059200
     54 H222         6.2070    -1.2930     0.5200 h1         1 740       0.059200
     55 H91          6.2850    -1.3640    -2.5850 hc         1 740       0.071700
     56 H92          7.2760    -2.3360    -1.4960 hc         1 740       0.071700
     57 H121         4.9960    -3.5490    -2.3340 h1         1 740       0.111200
     58 H122         5.1660    -3.4590    -0.5450 h1         1 740       0.111200
     59 H111        -4.9130    -0.6260    -2.1200 h1         1 740       0.036200
@<TRIPOS>BOND
     1     1     2 ar  
     2     1     6 ar  
     3     1    28 1   
     4     2     3 ar  
     5     2    37 1   
     6     3     4 ar  
     7     3    38 1   
     8     4     5 ar  
     9     4     7 1   
    10     5     6 ar  
    11     5    35 1   
    12     6    36 1   
    13     7     8 1   
    14     7    33 1   
    15     7    34 1   
    16     8     9 1   
    17     8    21 2   
    18     9    10 1   
    19     9    48 1   
    20    10    11 2   
    21    10    18 1   
    22    11    12 1   
    23    12    13 1   
    24    12    49 1   
    25    13    14 ar  
    26    13    18 ar  
    27    14    15 ar  
    28    14    50 1   
    29    15    16 ar  
    30    15    51 1   
    31    16    17 ar  
    32    16    19 1   
    33    17    18 ar  
    34    17    52 1   
    35    19    20 1   
    36    19    23 1   
    37    20    22 1   
    38    20    53 1   
    39    20    54 1   
    40    22    24 1   
    41    22    55 1   
    42    22    56 1   
    43    23    24 1   
    44    23    25 2   
    45    23    26 2   
    46    24    57 1   
    47    24    58 1   
    48    27    28 1   
    49    27    32 1   
    50    27    47 1   
    51    27    59 1   
    52    28    29 1   
    53    29    30 1   
    54    29    39 1   
    55    29    40 1   
    56    30    31 1   
    57    30    41 1   
    58    30    42 1   
    59    31    32 1   
    60    31    43 1   
    61    31    44 1   
    62    32    45 1   
    63    32    46 1   
@<TRIPOS>SUBSTRUCTURE
     1 740         1 TEMP              0 ****  ****    0 ROOT
