@<TRIPOS>MOLECULE
741
   67    70     1     0     0
SMALL
No Charge or Current Charge


@<TRIPOS>ATOM
      1 C1          -1.1160    -0.4710    -1.0570 ca         1 741       0.131100
      2 C2          -2.3570    -0.8290    -0.4870 ca         1 741       0.164100
      3 C3          -2.4850    -2.0600     0.1900 ca         1 741      -0.196000
      4 C4          -1.3940    -2.9320     0.3220 ca         1 741       0.316000
      5 C5          -0.1400    -2.5710    -0.2280 ca         1 741      -0.107000
      6 C6          -0.0190    -1.3500    -0.9400 ca         1 741      -0.170000
      7 N7          -1.5860    -4.0980     0.9690 nb         1 741      -0.680000
      8 C8          -0.5510    -4.9540     1.0910 ca         1 741       0.406900
      9 C9           0.7240    -4.6850     0.5940 ca         1 741      -0.165000
     10 C10          0.9520    -3.4650    -0.0620 ca         1 741       0.401000
     11 O11         -1.0100     0.7430    -1.7170 os         1 741      -0.318100
     12 O12         -3.4230     0.0470    -0.6170 os         1 741      -0.317100
     13 C13         -4.7230    -0.2300    -0.0710 c3         1 741       0.157600
     14 C14         -5.6340     0.9630    -0.4110 c3         1 741      -0.082400
     15 C15         -7.0720     0.7760     0.1220 c3         1 741       0.168800
     16 C16          0.2420     1.2440    -2.2210 c3         1 741       0.138900
     17 N17          2.2440    -3.1640    -0.5320 nu         1 741      -0.989000
     18 C18          3.0810    -2.0630    -0.3520 ca         1 741       0.331000
     19 C19          4.2450    -1.9560    -1.1250 ca         1 741      -0.166000
     20 C20          5.0940    -0.8450    -0.9810 ca         1 741      -0.021000
     21 C21          4.7750     0.1680    -0.0590 ca         1 741      -0.155000
     22 C22          3.6170     0.0450     0.7360 ca         1 741       0.183000
     23 C23          2.7790    -1.0690     0.5910 ca         1 741      -0.157000
     24 Cl24         3.1970     1.2720     1.9310 cl         1 741      -0.181000
     25 S25          5.8690     1.5880     0.0950 ss         1 741      -0.101300
     26 C26          4.7590     2.6760    -0.7680 cc         1 741       0.468800
     27 N27          3.7920     2.3110    -1.5940 nd         1 741      -0.652000
     28 C28          3.2600     3.5050    -2.0390 cd         1 741       0.222900
     29 C29          3.9240     4.5790    -1.4900 cc         1 741      -0.214000
     30 N30          4.9010     4.0420    -0.6760 na         1 741      -0.133500
     31 C31          5.8800     4.7850     0.1310 c3         1 741       0.054900
     32 C32          1.7550    -5.6550     0.8010 cg         1 741       0.330000
     33 N33          2.5870    -6.4560     0.9660 n1         1 741      -0.462000
     34 N34         -7.9570     1.9640    -0.0260 n3         1 741      -0.703600
     35 C35         -9.2740     1.8100     0.6670 c3         1 741       0.167800
     36 C36         -8.1390     2.3900    -1.4360 c3         1 741       0.152100
     37 C37         -9.2450     1.5990     2.2140 c3         1 741       0.166600
     38 O38         -8.6260     2.7060     2.8940 oh         1 741      -0.643000
     39 H3          -3.4310    -2.3610     0.6260 ha         1 741       0.141000
     40 H6           0.9220    -1.0940    -1.4100 ha         1 741       0.136000
     41 H8          -0.7610    -5.8850     1.6180 h4         1 741       0.029100
     42 H13         -5.1410    -1.1460    -0.5080 h1         1 741       0.037200
     43 H13A        -4.6680    -0.3500     1.0190 h1         1 741       0.037200
     44 H14         -5.2060     1.8760     0.0200 hc         1 741       0.067700
     45 H14A        -5.6520     1.0880    -1.4990 hc         1 741       0.067700
     46 H15         -7.5230    -0.0910    -0.3800 h1         1 741       0.026700
     47 H15A        -6.9820     0.5180     1.1850 h1         1 741       0.026700
     48 H16          0.1020     2.2350    -2.6690 h1         1 741       0.050367
     49 H16A         0.9780     1.3370    -1.4130 h1         1 741       0.050367
     50 H16B         0.6480     0.5780    -2.9940 h1         1 741       0.050367
     51 HN17         2.7160    -3.9620    -0.9600 hn         1 741       0.507000
     52 H19          4.4900    -2.7250    -1.8510 ha         1 741       0.127000
     53 H20          5.9900    -0.7640    -1.5940 ha         1 741       0.135000
     54 H23          1.8940    -1.1540     1.2110 ha         1 741       0.145000
     55 H28          2.4320     3.5300    -2.7360 h4         1 741       0.038100
     56 H29          3.7750     5.6430    -1.6210 h4         1 741       0.158000
     57 H31          6.8960     4.5350    -0.2000 h1         1 741       0.059700
     58 H31A         5.7190     5.8630     0.0140 h1         1 741       0.059700
     59 H31B         5.7660     4.5170     1.1880 h1         1 741       0.059700
     60 H35         -9.8890     2.7000     0.4790 h1         1 741       0.038700
     61 H35A        -9.8180     0.9630     0.2270 h1         1 741       0.038700
     62 H36         -8.5820     1.5830    -2.0350 h1         1 741       0.031700
     63 H36A        -8.8030     3.2630    -1.4940 h1         1 741       0.031700
     64 H36B        -7.1840     2.6790    -1.8930 h1         1 741       0.031700
     65 H37        -10.2790     1.4830     2.5640 h1         1 741       0.014200
     66 H37A        -8.7200     0.6650     2.4510 h1         1 741       0.014200
     67 HO38        -8.6120     2.4810     3.8490 ho         1 741       0.436000
@<TRIPOS>BOND
     1     1     2 ar  
     2     1     6 ar  
     3     1    11 1   
     4     2     3 ar  
     5     2    12 1   
     6     3     4 ar  
     7     3    39 1   
     8     4     5 ar  
     9     4     7 ar  
    10     5     6 ar  
    11     5    10 ar  
    12     6    40 1   
    13     7     8 ar  
    14     8     9 ar  
    15     8    41 1   
    16     9    10 ar  
    17     9    32 1   
    18    10    17 1   
    19    11    16 1   
    20    12    13 1   
    21    13    14 1   
    22    13    42 1   
    23    13    43 1   
    24    14    15 1   
    25    14    44 1   
    26    14    45 1   
    27    15    34 1   
    28    15    46 1   
    29    15    47 1   
    30    16    48 1   
    31    16    49 1   
    32    16    50 1   
    33    17    18 1   
    34    17    51 1   
    35    18    19 ar  
    36    18    23 ar  
    37    19    20 ar  
    38    19    52 1   
    39    20    21 ar  
    40    20    53 1   
    41    21    22 ar  
    42    21    25 1   
    43    22    23 ar  
    44    22    24 1   
    45    23    54 1   
    46    25    26 1   
    47    26    27 2   
    48    26    30 1   
    49    27    28 1   
    50    28    29 2   
    51    28    55 1   
    52    29    30 1   
    53    29    56 1   
    54    30    31 1   
    55    31    57 1   
    56    31    58 1   
    57    31    59 1   
    58    32    33 3   
    59    34    35 1   
    60    34    36 1   
    61    35    37 1   
    62    35    60 1   
    63    35    61 1   
    64    36    62 1   
    65    36    63 1   
    66    36    64 1   
    67    37    38 1   
    68    37    65 1   
    69    37    66 1   
    70    38    67 1   
@<TRIPOS>SUBSTRUCTURE
     1 741         1 TEMP              0 ****  ****    0 ROOT
