@<TRIPOS>MOLECULE
741
   67    70     1     0     0
SMALL
bcc


@<TRIPOS>ATOM
      1 C1          -0.9340    -0.6770    -1.2340 ca         1 741       0.131100
      2 C2          -2.1810    -0.9510    -0.5810 ca         1 741       0.164100
      3 C3          -2.3260    -2.1020     0.1460 ca         1 741      -0.279300
      4 C4          -1.2560    -3.0120     0.2910 ca         1 741       0.446600
      5 C5          -0.0070    -2.7120    -0.3020 ca         1 741      -0.172300
      6 C6           0.1080    -1.5500    -1.1030 ca         1 741      -0.188000
      7 N7          -1.4990    -4.1540     0.9790 nb         1 741      -0.680000
      8 C8          -0.5300    -5.0140     1.0990 ca         1 741       0.472200
      9 C9           0.7710    -4.7960     0.6010 ca         1 741      -0.230300
     10 C10          1.0630    -3.6200    -0.0880 ca         1 741       0.262600
     11 O11         -0.9080     0.4540    -1.9450 os         1 741      -0.294900
     12 O12         -3.1250    -0.0300    -0.7680 os         1 741      -0.293900
     13 C13         -4.3930    -0.2210    -0.1500 c3         1 741       0.134400
     14 C14         -5.2760     0.9550    -0.5060 c3         1 741      -0.082400
     15 C15         -6.6480     0.8020     0.1420 c3         1 741       0.168800
     16 C16          0.3140     0.8320    -2.5540 c3         1 741       0.115700
     17 N17          2.3290    -3.3950    -0.5650 nu         1 741      -0.657000
     18 C18          3.0340    -2.1960    -0.4890 ca         1 741       0.192600
     19 C19          4.0820    -1.9660    -1.3760 ca         1 741      -0.184000
     20 C20          4.7640    -0.7630    -1.3410 ca         1 741      -0.039000
     21 C21          4.4260     0.2330    -0.4320 ca         1 741      -0.028100
     22 C22          3.4040    -0.0300     0.4780 ca         1 741       0.091400
     23 C23          2.7130    -1.2270     0.4610 ca         1 741      -0.175000
     24 CL24         2.9610     1.1450     1.6610 cl         1 741      -0.089400
     25 S25          5.3460     1.7400    -0.4380 ss         1 741      -0.228200
     26 C26          4.0830     2.8830    -0.8530 cc         1 741       0.468800
     27 N27          3.2530     2.7840    -1.8610 nd         1 741      -0.652000
     28 C28          2.4710     3.8960    -1.7910 cd         1 741       0.288200
     29 C29          2.8550     4.6780    -0.7370 cc         1 741      -0.246600
     30 N30          3.8850     4.0150    -0.1380 na         1 741      -0.154900
     31 C31          4.6150     4.4460     1.0340 c3         1 741       0.025600
     32 C32          1.7840    -5.7540     0.8600 cg         1 741       0.240800
     33 N33          2.6090    -6.5330     1.0700 n1         1 741      -0.372800
     34 N34         -7.5350     1.9150    -0.1460 n3         1 741      -0.703600
     35 C35         -8.5990     2.0330     0.8360 c3         1 741       0.167800
     36 C36         -8.0750     1.8320    -1.4870 c3         1 741       0.152100
     37 C37         -8.1550     2.6300     2.1560 c3         1 741       0.143400
     38 O38         -7.7240     3.9560     1.9490 oh         1 741      -0.580800
     39 H3          -3.2600    -2.3580     0.6270 ha         1 741       0.159000
     40 H6           1.0290    -1.3590    -1.6320 ha         1 741       0.154000
     41 H8          -0.7400    -5.9340     1.6340 h4         1 741       0.029100
     42 H13         -4.8390    -1.1590    -0.5000 h1         1 741       0.037200
     43 H13A        -4.2690    -0.2960     0.9360 h1         1 741       0.037200
     44 H14         -4.8200     1.8840    -0.1550 hc         1 741       0.067700
     45 H14A        -5.3630     1.0220    -1.5930 hc         1 741       0.067700
     46 H15         -7.1000    -0.1580    -0.1630 h1         1 741       0.026700
     47 H15A        -6.5030     0.7370     1.2220 h1         1 741       0.026700
     48 H16          0.1390     1.7950    -3.0240 h1         1 741       0.050367
     49 H16A         1.1180     0.9410    -1.8220 h1         1 741       0.050367
     50 H16B         0.6220     0.1160    -3.3200 h1         1 741       0.050367
     51 HN17         2.8860    -4.2100    -0.7770 hn         1 741       0.451800
     52 H19          4.3450    -2.7130    -2.1130 ha         1 741       0.145000
     53 H20          5.5570    -0.5830    -2.0540 ha         1 741       0.153000
     54 H23          1.9310    -1.4010     1.1870 ha         1 741       0.163000
     55 H28          1.6780     4.0800    -2.4990 h4         1 741       0.038100
     56 H29          2.4980     5.6270    -0.3740 h4         1 741       0.176000
     57 H31          5.6230     4.7630     0.7740 h1         1 741       0.059700
     58 H31A         4.0920     5.2840     1.4840 h1         1 741       0.059700
     59 H31B         4.6730     3.6390     1.7600 h1         1 741       0.059700
     60 H35         -9.3800     2.6760     0.4200 h1         1 741       0.038700
     61 H35A        -9.0830     1.0640     1.0440 h1         1 741       0.038700
     62 H36         -8.7120     0.9460    -1.6440 h1         1 741       0.031700
     63 H36A        -8.6770     2.7160    -1.7030 h1         1 741       0.031700
     64 H36B        -7.2760     1.7970    -2.2280 h1         1 741       0.031700
     65 H37         -9.0120     2.5830     2.8410 h1         1 741       0.014200
     66 H37A        -7.3660     2.0170     2.6100 h1         1 741       0.014200
     67 HO38        -7.4860     4.3260     2.8030 ho         1 741       0.397000
@<TRIPOS>BOND
     1     1     2 ar  
     2     1     6 ar  
     3     1    11 1   
     4     2     3 ar  
     5     2    12 1   
     6     3     4 ar  
     7     3    39 1   
     8     4     5 ar  
     9     4     7 ar  
    10     5     6 ar  
    11     5    10 ar  
    12     6    40 1   
    13     7     8 ar  
    14     8     9 ar  
    15     8    41 1   
    16     9    10 ar  
    17     9    32 1   
    18    10    17 1   
    19    11    16 1   
    20    12    13 1   
    21    13    14 1   
    22    13    42 1   
    23    13    43 1   
    24    14    15 1   
    25    14    44 1   
    26    14    45 1   
    27    15    34 1   
    28    15    46 1   
    29    15    47 1   
    30    16    48 1   
    31    16    49 1   
    32    16    50 1   
    33    17    18 1   
    34    17    51 1   
    35    18    19 ar  
    36    18    23 ar  
    37    19    20 ar  
    38    19    52 1   
    39    20    21 ar  
    40    20    53 1   
    41    21    22 ar  
    42    21    25 1   
    43    22    23 ar  
    44    22    24 1   
    45    23    54 1   
    46    25    26 1   
    47    26    27 2   
    48    26    30 1   
    49    27    28 1   
    50    28    29 2   
    51    28    55 1   
    52    29    30 1   
    53    29    56 1   
    54    30    31 1   
    55    31    57 1   
    56    31    58 1   
    57    31    59 1   
    58    32    33 3   
    59    34    35 1   
    60    34    36 1   
    61    35    37 1   
    62    35    60 1   
    63    35    61 1   
    64    36    62 1   
    65    36    63 1   
    66    36    64 1   
    67    37    38 1   
    68    37    65 1   
    69    37    66 1   
    70    38    67 1   
@<TRIPOS>SUBSTRUCTURE
     1 741         1 TEMP              0 ****  ****    0 ROOT
