@<TRIPOS>MOLECULE
742
   59    58     1     0     0
SMALL
abcg2


@<TRIPOS>ATOM
      1 CAA         13.6030    -0.0480     0.2900 c3         1 742      -0.087100
      2 CAJ         12.3390     0.0970    -0.5460 c3         1 742      -0.075400
      3 CAK         11.0660    -0.0120     0.2850 c3         1 742      -0.075400
      4 CAL          9.7920     0.1340    -0.5380 c3         1 742      -0.075400
      5 CAM          8.5210     0.0100     0.2930 c3         1 742      -0.074400
      6 CAN          7.2470     0.1610    -0.5270 c3         1 742      -0.074400
      7 CAO          5.9770     0.0270     0.3040 c3         1 742      -0.074400
      8 CAP          4.7020     0.1840    -0.5150 c3         1 742      -0.075400
      9 CAQ          3.4340     0.0370     0.3170 c3         1 742      -0.076400
     10 CAR          2.1600     0.2040    -0.4990 c3         1 742      -0.075400
     11 CAS          0.8990     0.0360     0.3400 c3         1 742      -0.049400
     12 CAT         -0.3680     0.2210    -0.4920 c3         1 742      -0.319400
     13 PAY         -1.9070    -0.0220     0.4370 p5         1 742       0.785000
     14 CAB         -1.8810    -1.6560     1.1990 c3         1 742      -0.326600
     15 CAC         -2.0250     1.2590     1.7010 c3         1 742      -0.326600
     16 CAU         -3.3300     0.0770    -0.6530 c3         1 742      -0.077400
     17 CAV         -4.6330     0.1520     0.1690 c3         1 742      -0.621700
     18 PAX         -5.4040     1.8450     0.0210 p5         1 742       1.323500
     19 OAH         -4.1950     2.8180     0.0090 o          1 742      -0.931167
     20 OAI         -6.1770     1.8880    -1.3010 o          1 742      -0.931167
     21 OAE         -6.2780     2.0280     1.2680 o          1 742      -0.931167
     22 PAW         -5.6650    -1.3510    -0.2070 p5         1 742       1.323500
     23 OAF         -5.7570    -1.4640    -1.7350 o          1 742      -0.931167
     24 OAG         -4.8440    -2.5130     0.4070 o          1 742      -0.931167
     25 OAD         -7.0140    -1.1630     0.4940 o          1 742      -0.931167
     26 HAV         -4.4000     0.0550     1.2390 hc         1 742       0.032700
     27 HAU1        -3.1830     0.9630    -1.2740 hc         1 742       0.069200
     28 HAU2        -3.2840    -0.7930    -1.3110 hc         1 742       0.069200
     29 HAC1        -2.5920     2.0890     1.2650 hc         1 742       0.090533
     30 HAC2        -2.5680     0.8840     2.5670 hc         1 742       0.090533
     31 HAC3        -1.0340     1.5770     2.0210 hc         1 742       0.090533
     32 HAB1        -1.4090    -1.6230     2.1790 hc         1 742       0.090533
     33 HAB2        -2.9160    -2.0100     1.2670 hc         1 742       0.090533
     34 HAB3        -1.3290    -2.3460     0.5610 hc         1 742       0.090533
     35 HAT1        -0.4080     1.2220    -0.9300 hc         1 742       0.071700
     36 HAT2        -0.3910    -0.4910    -1.3220 hc         1 742       0.071700
     37 HAS1         0.9010    -0.9580     0.7970 hc         1 742       0.031200
     38 HAS2         0.9160     0.7550     1.1630 hc         1 742       0.031200
     39 HAR1         2.1530     1.1930    -0.9710 hc         1 742       0.037200
     40 HAR2         2.1500    -0.5250    -1.3170 hc         1 742       0.037200
     41 HAQ1         3.4300    -0.9460     0.8010 hc         1 742       0.033200
     42 HAQ2         3.4440     0.7740     1.1280 hc         1 742       0.033200
     43 HAP1         4.7040     1.1640    -1.0050 hc         1 742       0.035200
     44 HAP2         4.6940    -0.5580    -1.3210 hc         1 742       0.035200
     45 HAO1         5.9710    -0.9500     0.8010 hc         1 742       0.034700
     46 HAO2         5.9870     0.7730     1.1060 hc         1 742       0.034700
     47 HAN1         7.2510     1.1360    -1.0290 hc         1 742       0.035700
     48 HAN2         7.2380    -0.5890    -1.3260 hc         1 742       0.035700
     49 HAM1         8.5140    -0.9620     0.8000 hc         1 742       0.035700
     50 HAM2         8.5330     0.7650     1.0880 hc         1 742       0.035700
     51 HAL1         9.7990     1.1040    -1.0490 hc         1 742       0.035700
     52 HAL2         9.7830    -0.6240    -1.3300 hc         1 742       0.035700
     53 HAK1        11.0550    -0.9780     0.8030 hc         1 742       0.035700
     54 HAK2        11.0810     0.7510     1.0710 hc         1 742       0.035700
     55 HAJ1        12.3500     1.0590    -1.0670 hc         1 742       0.035700
     56 HAJ2        12.3270    -0.6690    -1.3270 hc         1 742       0.035700
     57 HAA1        13.6640     0.7300     1.0530 hc         1 742       0.027367
     58 HAA2        13.6270    -1.0120     0.8030 hc         1 742       0.027367
     59 HAA3        14.5020     0.0200    -0.3240 hc         1 742       0.027367
@<TRIPOS>BOND
     1     1     2 1   
     2     1    57 1   
     3     1    58 1   
     4     1    59 1   
     5     2     3 1   
     6     2    55 1   
     7     2    56 1   
     8     3     4 1   
     9     3    53 1   
    10     3    54 1   
    11     4     5 1   
    12     4    51 1   
    13     4    52 1   
    14     5     6 1   
    15     5    49 1   
    16     5    50 1   
    17     6     7 1   
    18     6    47 1   
    19     6    48 1   
    20     7     8 1   
    21     7    45 1   
    22     7    46 1   
    23     8     9 1   
    24     8    43 1   
    25     8    44 1   
    26     9    10 1   
    27     9    41 1   
    28     9    42 1   
    29    10    11 1   
    30    10    39 1   
    31    10    40 1   
    32    11    12 1   
    33    11    37 1   
    34    11    38 1   
    35    12    13 1   
    36    12    35 1   
    37    12    36 1   
    38    13    14 1   
    39    13    15 1   
    40    13    16 1   
    41    14    32 1   
    42    14    33 1   
    43    14    34 1   
    44    15    29 1   
    45    15    30 1   
    46    15    31 1   
    47    16    17 1   
    48    16    27 1   
    49    16    28 1   
    50    17    18 1   
    51    17    22 1   
    52    17    26 1   
    53    18    19 1   
    54    18    20 1   
    55    18    21 1   
    56    22    23 1   
    57    22    24 1   
    58    22    25 1   
@<TRIPOS>SUBSTRUCTURE
     1 742         1 TEMP              0 ****  ****    0 ROOT
