@<TRIPOS>MOLECULE
742
   59    58     1     0     0
SMALL
No Charge or Current Charge


@<TRIPOS>ATOM
      1 CAA         13.6780     0.4220     0.0240 c3         1 742      -0.087100
      2 CAJ         12.3480     0.5360    -0.7450 c3         1 742      -0.075400
      3 CAK         11.1120     0.2620     0.1400 c3         1 742      -0.075400
      4 CAL          9.7790     0.3760    -0.6310 c3         1 742      -0.075400
      5 CAM          8.5430     0.1020     0.2540 c3         1 742      -0.074400
      6 CAN          7.2100     0.2170    -0.5170 c3         1 742      -0.074400
      7 CAO          5.9740    -0.0570     0.3680 c3         1 742      -0.074400
      8 CAP          4.6410     0.0570    -0.4030 c3         1 742      -0.075400
      9 CAQ          3.4060    -0.2170     0.4830 c3         1 742      -0.076400
     10 CAR          2.0720    -0.1040    -0.2880 c3         1 742      -0.075400
     11 CAS          0.8380    -0.3790     0.5970 c3         1 742      -0.049400
     12 CAT         -0.4930    -0.2670    -0.1810 c3         1 742      -0.319400
     13 PAY         -2.0140    -0.5730     0.8250 p5         1 742       0.785000
     14 CAB         -1.8540    -2.2390     1.5840 c3         1 742      -0.326600
     15 CAC         -2.1180     0.6380     2.2060 c3         1 742      -0.326600
     16 CAU         -3.5410    -0.5670    -0.2460 c3         1 742      -0.077400
     17 CAV         -4.6450     0.5390    -0.0710 c3         1 742      -0.621700
     18 PAX         -4.2880     2.1050    -0.8860 p5         1 742       1.323500
     19 OAH         -2.8300     2.3420    -0.7000 o          1 742      -0.931167
     20 OAI         -4.5900     2.0940    -2.3450 o          1 742      -0.931167
     21 OAE         -5.0100     3.2070    -0.1870 o          1 742      -0.931167
     22 PAW         -6.2600    -0.0010    -0.6550 p5         1 742       1.323500
     23 OAF         -6.1300    -0.6550    -1.9890 o          1 742      -0.931167
     24 OAG         -6.6890    -1.0480     0.3170 o          1 742      -0.931167
     25 OAD         -7.2830     1.0810    -0.6750 o          1 742      -0.931167
     26 HAV         -4.7760     0.7540     0.9920 hc         1 742       0.032700
     27 HAU1        -3.1980    -0.5910    -1.2870 hc         1 742       0.069200
     28 HAU2        -3.9830    -1.5500    -0.0500 hc         1 742       0.069200
     29 HAC1        -2.0910     1.6580     1.8100 hc         1 742       0.090533
     30 HAC2        -3.0520     0.4860     2.7570 hc         1 742       0.090533
     31 HAC3        -1.2710     0.4930     2.8850 hc         1 742       0.090533
     32 HAB1        -1.0390    -2.2360     2.3160 hc         1 742       0.090533
     33 HAB2        -2.7910    -2.5010     2.0890 hc         1 742       0.090533
     34 HAB3        -1.6410    -2.9770     0.8040 hc         1 742       0.090533
     35 HAT1        -0.5900     0.7340    -0.6140 hc         1 742       0.071700
     36 HAT2        -0.5080    -0.9890    -1.0070 hc         1 742       0.071700
     37 HAS1         0.9260    -1.3840     1.0280 hc         1 742       0.031200
     38 HAS2         0.8320     0.3310     1.4330 hc         1 742       0.031200
     39 HAR1         1.9890     0.9020    -0.7190 hc         1 742       0.037200
     40 HAR2         2.0790    -0.8120    -1.1260 hc         1 742       0.037200
     41 HAQ1         3.4880    -1.2220     0.9140 hc         1 742       0.033200
     42 HAQ2         3.3990     0.4920     1.3200 hc         1 742       0.033200
     43 HAP1         4.5590     1.0630    -0.8340 hc         1 742       0.035200
     44 HAP2         4.6480    -0.6510    -1.2410 hc         1 742       0.035200
     45 HAO1         6.0560    -1.0630     0.7990 hc         1 742       0.034700
     46 HAO2         5.9680     0.6510     1.2060 hc         1 742       0.034700
     47 HAN1         7.1280     1.2230    -0.9480 hc         1 742       0.035700
     48 HAN2         7.2170    -0.4910    -1.3550 hc         1 742       0.035700
     49 HAM1         8.6250    -0.9030     0.6850 hc         1 742       0.035700
     50 HAM2         8.5370     0.8110     1.0920 hc         1 742       0.035700
     51 HAL1         9.6970     1.3820    -1.0620 hc         1 742       0.035700
     52 HAL2         9.7860    -0.3320    -1.4690 hc         1 742       0.035700
     53 HAK1        11.1940    -0.7440     0.5710 hc         1 742       0.035700
     54 HAK2        11.1060     0.9700     0.9780 hc         1 742       0.035700
     55 HAJ1        12.2710     1.5420    -1.1760 hc         1 742       0.035700
     56 HAJ2        12.3590    -0.1720    -1.5830 hc         1 742       0.035700
     57 HAA1        13.7130     1.1430     0.8490 hc         1 742       0.027367
     58 HAA2        13.8020    -0.5860     0.4380 hc         1 742       0.027367
     59 HAA3        14.5240     0.6240    -0.6440 hc         1 742       0.027367
@<TRIPOS>BOND
     1     1     2 1   
     2     1    57 1   
     3     1    58 1   
     4     1    59 1   
     5     2     3 1   
     6     2    55 1   
     7     2    56 1   
     8     3     4 1   
     9     3    53 1   
    10     3    54 1   
    11     4     5 1   
    12     4    51 1   
    13     4    52 1   
    14     5     6 1   
    15     5    49 1   
    16     5    50 1   
    17     6     7 1   
    18     6    47 1   
    19     6    48 1   
    20     7     8 1   
    21     7    45 1   
    22     7    46 1   
    23     8     9 1   
    24     8    43 1   
    25     8    44 1   
    26     9    10 1   
    27     9    41 1   
    28     9    42 1   
    29    10    11 1   
    30    10    39 1   
    31    10    40 1   
    32    11    12 1   
    33    11    37 1   
    34    11    38 1   
    35    12    13 1   
    36    12    35 1   
    37    12    36 1   
    38    13    14 1   
    39    13    15 1   
    40    13    16 1   
    41    14    32 1   
    42    14    33 1   
    43    14    34 1   
    44    15    29 1   
    45    15    30 1   
    46    15    31 1   
    47    16    17 1   
    48    16    27 1   
    49    16    28 1   
    50    17    18 1   
    51    17    22 1   
    52    17    26 1   
    53    18    19 1   
    54    18    20 1   
    55    18    21 1   
    56    22    23 1   
    57    22    24 1   
    58    22    25 1   
@<TRIPOS>SUBSTRUCTURE
     1 742         1 TEMP              0 ****  ****    0 ROOT
