@<TRIPOS>MOLECULE
743
   59    61     1     0     0
SMALL
No Charge or Current Charge


@<TRIPOS>ATOM
      1 C1          -7.7190     1.0970    -0.2670 ca         1 743       0.173000
      2 F1          -8.9480     1.5920    -0.5310 f          1 743      -0.179000
      3 C2          -7.1710     1.2380     1.0160 ca         1 743      -0.153000
      4 C3          -5.8910     0.7230     1.2910 ca         1 743      -0.073000
      5 C4          -5.1380     0.0580     0.2880 cp         1 743      -0.053000
      6 C5          -5.7180    -0.0710    -1.0020 ca         1 743      -0.073000
      7 C6          -6.9970     0.4450    -1.2760 ca         1 743      -0.153000
      8 C7          -3.7750    -0.4900     0.5800 cp         1 743      -0.022000
      9 C8          -3.3220    -1.6900    -0.0230 ca         1 743      -0.105000
     10 C9          -2.0430    -2.2050     0.2500 ca         1 743      -0.085000
     11 C10         -1.1820    -1.5330     1.1370 ca         1 743      -0.100300
     12 C11         -1.6140    -0.3390     1.7430 ca         1 743      -0.085000
     13 C12         -2.8930     0.1740     1.4690 ca         1 743      -0.105000
     14 C13          0.2080    -2.0830     1.4270 c3         1 743       0.214900
     15 O14          1.1130    -1.5520     0.4430 os         1 743      -0.327000
     16 N15          2.4320    -1.9530     0.7170 n2         1 743      -0.310700
     17 C16          3.3620    -1.4000     0.0010 c2         1 743       0.385300
     18 C17          3.1730    -0.3480    -1.1130 c6         1 743      -0.341000
     19 C18          2.0410     0.6590    -0.8990 c          1 743       0.622100
     20 O18          0.9800     0.5490    -1.4990 o          1 743      -0.479100
     21 C19          2.2910     1.8430     0.0530 c6         1 743      -0.105600
     22 C20          3.6820     2.5470    -0.1820 c6         1 743      -0.025000
     23 C21          4.8150     1.4990    -0.3730 c6         1 743      -0.183400
     24 C22          4.4390     0.4270    -1.4030 c          1 743       0.589100
     25 O22          5.0980     0.2370    -2.4130 o          1 743      -0.493100
     26 C23          2.0780     1.3880     1.4400 c1         1 743       0.322900
     27 N23          1.9250     1.0670     2.5490 n1         1 743      -0.462000
     28 C24          3.5850     3.4180    -1.4760 c3         1 743      -0.094100
     29 C25          4.0640     3.5360     0.9680 c3         1 743      -0.094100
     30 C26          4.7560    -2.0170     0.1270 c3         1 743      -0.117700
     31 C27          5.0960    -3.0010    -1.0200 c3         1 743      -0.076400
     32 C28          6.4930    -3.6350    -0.8750 c3         1 743      -0.089100
     33 H2          -7.7370     1.7420     1.7950 ha         1 743       0.132500
     34 H3          -5.4860     0.8290     2.2940 ha         1 743       0.120500
     35 H5          -5.1660    -0.5610    -1.8000 ha         1 743       0.120500
     36 H6          -7.4270     0.3420    -2.2690 ha         1 743       0.132500
     37 H8          -3.9720    -2.2370    -0.7010 ha         1 743       0.116000
     38 H9          -1.7210    -3.1270    -0.2280 ha         1 743       0.119500
     39 H11         -0.9560     0.1960     2.4250 ha         1 743       0.119500
     40 H12         -3.1960     1.1050     1.9410 ha         1 743       0.116000
     41 H13          0.5140    -1.7860     2.4390 h1         1 743       0.054700
     42 H13A         0.1890    -3.1810     1.3870 h1         1 743       0.054700
     43 H17          2.9250    -0.9140    -2.0180 hc         1 743       0.113700
     44 H19          1.4770     2.5600    -0.1130 hc         1 743       0.106700
     45 H21          5.7750     1.9620    -0.6410 hc         1 743       0.078700
     46 H21A         4.9150     0.9930     0.5960 hc         1 743       0.078700
     47 H24          2.8350     4.2120    -1.3700 hc         1 743       0.047033
     48 H24A         4.5410     3.9050    -1.7070 hc         1 743       0.047033
     49 H24B         3.3040     2.8250    -2.3540 hc         1 743       0.047033
     50 H25          4.2640     3.0160     1.9130 hc         1 743       0.047033
     51 H25A         4.9730     4.1010     0.7240 hc         1 743       0.047033
     52 H25B         3.2660     4.2660     1.1530 hc         1 743       0.047033
     53 H26          5.5390    -1.2550     0.2020 hc         1 743       0.062200
     54 H26A         4.8230    -2.5710     1.0720 hc         1 743       0.062200
     55 H27          4.3430    -3.7990    -1.0460 hc         1 743       0.049700
     56 H27A         5.0420    -2.4850    -1.9860 hc         1 743       0.049700
     57 H28          6.6870    -4.3260    -1.7040 hc         1 743       0.035700
     58 H28A         7.2720    -2.8630    -0.8830 hc         1 743       0.035700
     59 H28B         6.5700    -4.1960     0.0640 hc         1 743       0.035700
@<TRIPOS>BOND
     1     1     2 1   
     2     1     3 ar  
     3     1     7 ar  
     4     3     4 ar  
     5     3    33 1   
     6     4     5 ar  
     7     4    34 1   
     8     5     6 ar  
     9     5     8 1   
    10     6     7 ar  
    11     6    35 1   
    12     7    36 1   
    13     8     9 ar  
    14     8    13 ar  
    15     9    10 ar  
    16     9    37 1   
    17    10    11 ar  
    18    10    38 1   
    19    11    12 ar  
    20    11    14 1   
    21    12    13 ar  
    22    12    39 1   
    23    13    40 1   
    24    14    15 1   
    25    14    41 1   
    26    14    42 1   
    27    15    16 1   
    28    16    17 2   
    29    17    18 1   
    30    17    30 1   
    31    18    19 1   
    32    18    24 1   
    33    18    43 1   
    34    19    20 2   
    35    19    21 1   
    36    21    22 1   
    37    21    26 1   
    38    21    44 1   
    39    22    23 1   
    40    22    28 1   
    41    22    29 1   
    42    23    24 1   
    43    23    45 1   
    44    23    46 1   
    45    24    25 2   
    46    26    27 3   
    47    28    47 1   
    48    28    48 1   
    49    28    49 1   
    50    29    50 1   
    51    29    51 1   
    52    29    52 1   
    53    30    31 1   
    54    30    53 1   
    55    30    54 1   
    56    31    32 1   
    57    31    55 1   
    58    31    56 1   
    59    32    57 1   
    60    32    58 1   
    61    32    59 1   
@<TRIPOS>SUBSTRUCTURE
     1 743         1 TEMP              0 ****  ****    0 ROOT
