@<TRIPOS>MOLECULE
743
   59    61     1     0     0
SMALL
bcc


@<TRIPOS>ATOM
      1 C1          -7.1540     1.5320    -0.2930 ca         1 743       0.137900
      2 F1          -8.3350     2.1110    -0.5660 f          1 743      -0.143900
      3 C2          -6.7420     1.4390     1.0220 ca         1 743      -0.171000
      4 C3          -5.5200     0.8430     1.2930 ca         1 743      -0.091000
      5 C4          -4.7150     0.3410     0.2690 cp         1 743      -0.053000
      6 C5          -5.1700     0.4540    -1.0450 ca         1 743      -0.091000
      7 C6          -6.3890     1.0480    -1.3360 ca         1 743      -0.171000
      8 C7          -3.4170    -0.2940     0.5710 cp         1 743      -0.022000
      9 C8          -2.9830    -1.4120    -0.1440 ca         1 743      -0.123000
     10 C9          -1.7700    -2.0130     0.1470 ca         1 743      -0.103000
     11 C10         -0.9570    -1.5190     1.1630 ca         1 743      -0.100300
     12 C11         -1.3830    -0.4020     1.8730 ca         1 743      -0.103000
     13 C12         -2.5960     0.2020     1.5840 ca         1 743      -0.123000
     14 C13          0.3640    -2.1570     1.4590 c3         1 743       0.191700
     15 O14          1.2810    -1.6680     0.4800 os         1 743      -0.205300
     16 N15          2.5440    -2.1060     0.7330 n2         1 743      -0.409200
     17 C16          3.4220    -1.5550     0.0020 c2         1 743       0.385300
     18 C17          3.1060    -0.5550    -1.1050 c6         1 743      -0.341000
     19 C18          1.8330     0.2700    -0.9400 c          1 743       0.622100
     20 O18          0.9420     0.2320    -1.7450 o          1 743      -0.479100
     21 C19          1.8760     1.3710     0.1230 c6         1 743      -0.105600
     22 C20          3.0480     2.3420    -0.2240 c6         1 743      -0.025000
     23 C21          4.3550     1.5340    -0.2840 c6         1 743      -0.183400
     24 C22          4.2750     0.4220    -1.2920 c          1 743       0.589100
     25 O22          5.0450     0.2970    -2.2090 o          1 743      -0.493100
     26 C23          2.0150     0.8800     1.4860 c1         1 743       0.233700
     27 N23          2.1310     0.5640     2.5860 n1         1 743      -0.372800
     28 C24          2.7670     3.0060    -1.5750 c3         1 743      -0.094100
     29 C25          3.1580     3.4320     0.8390 c3         1 743      -0.094100
     30 C26          4.8260    -2.0590     0.1530 c3         1 743      -0.117700
     31 C27          5.2610    -2.9580    -1.0090 c3         1 743      -0.076400
     32 C28          6.6600    -3.5150    -0.7900 c3         1 743      -0.089100
     33 H2          -7.3650     1.8150     1.8230 ha         1 743       0.150500
     34 H3          -5.2050     0.7500     2.3240 ha         1 743       0.138500
     35 H5          -4.5600     0.0900    -1.8620 ha         1 743       0.138500
     36 H6          -6.7300     1.1400    -2.3590 ha         1 743       0.150500
     37 H8          -3.6090    -1.8330    -0.9210 ha         1 743       0.134000
     38 H9          -1.4620    -2.8890    -0.4110 ha         1 743       0.137500
     39 H11         -0.7600     0.0040     2.6610 ha         1 743       0.137500
     40 H12         -2.8960     1.0800     2.1430 ha         1 743       0.134000
     41 H13          0.7110    -1.8930     2.4610 h1         1 743       0.054700
     42 H13A         0.3040    -3.2470     1.3890 h1         1 743       0.054700
     43 H17          3.0020    -1.1320    -2.0300 hc         1 743       0.113700
     44 H19          0.9290     1.9190     0.0790 hc         1 743       0.106700
     45 H21          5.1900     2.1910    -0.5300 hc         1 743       0.078700
     46 H21A         4.5670     1.1030     0.7030 hc         1 743       0.078700
     47 H24          1.8180     3.5440    -1.5510 hc         1 743       0.047033
     48 H24A         3.5530     3.7300    -1.7930 hc         1 743       0.047033
     49 H24B         2.7290     2.3110    -2.4140 hc         1 743       0.047033
     50 H25          3.3890     3.0320     1.8270 hc         1 743       0.047033
     51 H25A         3.9520     4.1300     0.5730 hc         1 743       0.047033
     52 H25B         2.2270     3.9970     0.9080 hc         1 743       0.047033
     53 H26          5.5320    -1.2300     0.2600 hc         1 743       0.062200
     54 H26A         4.8780    -2.6280     1.0840 hc         1 743       0.062200
     55 H27          4.5440    -3.7770    -1.1070 hc         1 743       0.049700
     56 H27A         5.2330    -2.4040    -1.9500 hc         1 743       0.049700
     57 H28          6.9570    -4.1640    -1.6140 hc         1 743       0.035700
     58 H28A         7.3960    -2.7130    -0.7160 hc         1 743       0.035700
     59 H28B         6.7120    -4.1000     0.1300 hc         1 743       0.035700
@<TRIPOS>BOND
     1     1     2 1   
     2     1     3 ar  
     3     1     7 ar  
     4     3     4 ar  
     5     3    33 1   
     6     4     5 ar  
     7     4    34 1   
     8     5     6 ar  
     9     5     8 1   
    10     6     7 ar  
    11     6    35 1   
    12     7    36 1   
    13     8     9 ar  
    14     8    13 ar  
    15     9    10 ar  
    16     9    37 1   
    17    10    11 ar  
    18    10    38 1   
    19    11    12 ar  
    20    11    14 1   
    21    12    13 ar  
    22    12    39 1   
    23    13    40 1   
    24    14    15 1   
    25    14    41 1   
    26    14    42 1   
    27    15    16 1   
    28    16    17 2   
    29    17    18 1   
    30    17    30 1   
    31    18    19 1   
    32    18    24 1   
    33    18    43 1   
    34    19    20 2   
    35    19    21 1   
    36    21    22 1   
    37    21    26 1   
    38    21    44 1   
    39    22    23 1   
    40    22    28 1   
    41    22    29 1   
    42    23    24 1   
    43    23    45 1   
    44    23    46 1   
    45    24    25 2   
    46    26    27 3   
    47    28    47 1   
    48    28    48 1   
    49    28    49 1   
    50    29    50 1   
    51    29    51 1   
    52    29    52 1   
    53    30    31 1   
    54    30    53 1   
    55    30    54 1   
    56    31    32 1   
    57    31    55 1   
    58    31    56 1   
    59    32    57 1   
    60    32    58 1   
    61    32    59 1   
@<TRIPOS>SUBSTRUCTURE
     1 743         1 TEMP              0 ****  ****    0 ROOT
