@<TRIPOS>MOLECULE
744
   46    48     1     0     0
SMALL
bcc


@<TRIPOS>ATOM
      1 C1          -1.6060     1.7360    -2.2550 c6         1 744      -0.072900
      2 C2          -0.9310     2.4410    -3.4290 c6         1 744      -0.088900
      3 C3           0.5860     2.2890    -3.3500 c6         1 744       0.119700
      4 C4           1.1230     2.8080    -2.0150 c6         1 744      -0.088900
      5 C5           0.4430     2.1060    -0.8440 c6         1 744      -0.072900
      6 C6          -1.0750     2.2410    -0.9170 c6         1 744      -0.077400
      7 C7           2.1970     2.3340    -5.2220 c          1 744       0.721500
      8 C8           2.6620     3.3370    -6.2560 c5         1 744      -0.154400
      9 C9           2.2340     4.6780    -5.6760 c5         1 744      -0.167700
     10 C10          0.9890     4.3000    -4.8500 c5         1 744       0.106000
     11 N11          1.2500     2.9270    -4.4690 n          1 744      -0.481800
     12 C12          3.2900     5.2190    -4.7330 c          1 744       0.670100
     13 N13          3.3240     6.5750    -4.6570 ns         1 744      -0.488100
     14 O14          4.0030     4.4890    -4.0710 o          1 744      -0.557100
     15 O15          2.5860     1.1830    -5.1100 o          1 744      -0.617500
     16 C15          4.1080     7.3380    -3.7770 ca         1 744       0.069600
     17 C20          3.5290     8.4640    -3.1760 ca         1 744      -0.112300
     18 C23          2.0950     8.8240    -3.4250 c3         1 744      -0.045800
     19 C19          4.3210     9.2340    -2.3310 ca         1 744      -0.103000
     20 C18          5.6410     8.9090    -2.0610 ca         1 744      -0.133000
     21 C17          6.1810     7.7890    -2.6690 ca         1 744       0.043400
     22 CL1          7.8340     7.3620    -2.3620 cl         1 744      -0.104400
     23 C16          5.4360     7.0030    -3.5310 ca         1 744      -0.121000
     24 HN13         2.6620     7.0810    -5.2260 hn         1 744       0.318500
     25 H9           1.9830     5.4110    -6.4430 hc         1 744       0.070700
     26 H101         0.8530     4.9370    -3.9740 h1         1 744       0.050200
     27 H102         0.0850     4.3820    -5.4590 h1         1 744       0.050200
     28 H81          3.7290     3.2460    -6.4500 hc         1 744       0.084200
     29 H82          2.1390     3.1360    -7.1950 hc         1 744       0.084200
     30 H3           0.8250     1.2240    -3.4240 h1         1 744       0.084700
     31 H41          0.9500     3.8870    -1.9430 hc         1 744       0.045450
     32 H42          2.2050     2.6610    -1.9760 hc         1 744       0.045450
     33 H4           0.8170     2.5110     0.0990 hc         1 744       0.042950
     34 H5           0.7110     1.0440    -0.8530 hc         1 744       0.042950
     35 H7          -1.5420     1.6940    -0.0960 hc         1 744       0.038700
     36 H6          -1.3520     3.2930    -0.7890 hc         1 744       0.038700
     37 H8          -1.4310     0.6570    -2.3300 hc         1 744       0.042950
     38 H1          -2.6870     1.8770    -2.3120 hc         1 744       0.042950
     39 H2          -1.2950     2.0380    -4.3770 hc         1 744       0.045450
     40 H10         -1.2020     3.5030    -3.4100 hc         1 744       0.045450
     41 H19          3.8910    10.1090    -1.8600 ha         1 744       0.135000
     42 H18          6.2320     9.5170    -1.3900 ha         1 744       0.150000
     43 H16          5.8890     6.1520    -4.0160 ha         1 744       0.169000
     44 H231         1.4240     8.0050    -3.1580 hc         1 744       0.042367
     45 H232         1.8060     9.6930    -2.8380 hc         1 744       0.042367
     46 H233         1.9050     9.0660    -4.4740 hc         1 744       0.042367
@<TRIPOS>BOND
     1     1     2 1   
     2     1     6 1   
     3     1    37 1   
     4     1    38 1   
     5     2     3 1   
     6     2    39 1   
     7     2    40 1   
     8     3     4 1   
     9     3    11 1   
    10     3    30 1   
    11     4     5 1   
    12     4    31 1   
    13     4    32 1   
    14     5     6 1   
    15     5    33 1   
    16     5    34 1   
    17     6    35 1   
    18     6    36 1   
    19     7     8 1   
    20     7    11 1   
    21     7    15 2   
    22     8     9 1   
    23     8    28 1   
    24     8    29 1   
    25     9    10 1   
    26     9    12 1   
    27     9    25 1   
    28    10    11 1   
    29    10    26 1   
    30    10    27 1   
    31    12    13 1   
    32    12    14 2   
    33    13    16 1   
    34    13    24 1   
    35    16    17 ar  
    36    16    23 ar  
    37    17    18 1   
    38    17    19 ar  
    39    18    44 1   
    40    18    45 1   
    41    18    46 1   
    42    19    20 ar  
    43    19    41 1   
    44    20    21 ar  
    45    20    42 1   
    46    21    22 1   
    47    21    23 ar  
    48    23    43 1   
@<TRIPOS>SUBSTRUCTURE
     1 744         1 TEMP              0 ****  ****    0 ROOT
