@<TRIPOS>MOLECULE
744
   46    48     1     0     0
SMALL
No Charge or Current Charge


@<TRIPOS>ATOM
      1 C1          -1.6010     1.0730    -2.1590 c6         1 744      -0.072900
      2 C2          -1.1310     2.1420    -3.1770 c6         1 744      -0.088900
      3 C3           0.3890     2.0040    -3.4770 c6         1 744       0.119700
      4 C4           1.1980     2.1070    -2.1550 c6         1 744      -0.088900
      5 C5           0.7370     1.0430    -1.1270 c6         1 744      -0.072900
      6 C6          -0.7820     1.1560    -0.8480 c6         1 744      -0.077400
      7 C7           1.8760     2.7270    -5.3760 c          1 744       0.579000
      8 C8           2.0850     4.0320    -6.1390 c5         1 744      -0.154400
      9 C9           1.6780     5.1380    -5.1140 c5         1 744      -0.167700
     10 C10          0.5150     4.4430    -4.3360 c5         1 744       0.106000
     11 N11          0.8540     3.0060    -4.4670 n          1 744      -0.414800
     12 C12          2.8550     5.4510    -4.1460 c          1 744       0.603100
     13 N13          3.1180     6.8140    -4.1930 ns         1 744      -0.162000
     14 O14          3.4650     4.6390    -3.4620 o          1 744      -0.557100
     15 O15          2.5620     1.7150    -5.3740 o          1 744      -0.542000
     16 C15          4.0610     7.6360    -3.5090 ca         1 744      -0.023000
     17 C20          4.1690     8.9970    -3.8880 ca         1 744      -0.112300
     18 C23          3.3030     9.5730    -5.0060 c3         1 744      -0.045800
     19 C19          5.0880     9.8390    -3.2300 ca         1 744      -0.085000
     20 C18          5.8970     9.3390    -2.1980 ca         1 744      -0.115000
     21 C17          5.7900     7.9960    -1.8170 ca         1 744       0.135000
     22 Cl1          6.7990     7.3710    -0.5190 cl         1 744      -0.196000
     23 C16          4.8790     7.1470    -2.4640 ca         1 744      -0.103000
     24 HN13         2.5260     7.3260    -4.8340 hn         1 744       0.152000
     25 H9           1.3350     6.0540    -5.6110 hc         1 744       0.070700
     26 H101         0.4570     4.7730    -3.2900 h1         1 744       0.050200
     27 H102        -0.4550     4.6450    -4.8110 h1         1 744       0.050200
     28 H81          3.0960     4.1050    -6.5550 hc         1 744       0.084200
     29 H82          1.3570     4.0460    -6.9570 hc         1 744       0.084200
     30 H3           0.5530     1.0010    -3.8990 h1         1 744       0.084700
     31 H41          1.0880     3.1090    -1.7190 hc         1 744       0.045450
     32 H42          2.2690     1.9750    -2.3630 hc         1 744       0.045450
     33 H4           1.2980     1.1620    -0.1900 hc         1 744       0.042950
     34 H5           0.9700     0.0380    -1.5050 hc         1 744       0.042950
     35 H7          -1.0960     0.3570    -0.1610 hc         1 744       0.038700
     36 H6          -0.9950     2.1060    -0.3390 hc         1 744       0.038700
     37 H8          -1.4970     0.0710    -2.5990 hc         1 744       0.042950
     38 H1          -2.6690     1.2090    -1.9410 hc         1 744       0.042950
     39 H2          -1.7030     2.0410    -4.1090 hc         1 744       0.045450
     40 H10         -1.3560     3.1410    -2.7780 hc         1 744       0.045450
     41 H19          5.1770    10.8840    -3.5170 ha         1 744       0.117000
     42 H18          6.6040     9.9930    -1.6930 ha         1 744       0.132000
     43 H16          4.8220     6.1170    -2.1310 ha         1 744       0.151000
     44 H231         2.2370     9.4970    -4.7600 hc         1 744       0.042367
     45 H232         3.5210    10.6330    -5.1860 hc         1 744       0.042367
     46 H233         3.4720     9.0420    -5.9510 hc         1 744       0.042367
@<TRIPOS>BOND
     1     1     2 1   
     2     1     6 1   
     3     1    37 1   
     4     1    38 1   
     5     2     3 1   
     6     2    39 1   
     7     2    40 1   
     8     3     4 1   
     9     3    11 1   
    10     3    30 1   
    11     4     5 1   
    12     4    31 1   
    13     4    32 1   
    14     5     6 1   
    15     5    33 1   
    16     5    34 1   
    17     6    35 1   
    18     6    36 1   
    19     7     8 1   
    20     7    11 1   
    21     7    15 2   
    22     8     9 1   
    23     8    28 1   
    24     8    29 1   
    25     9    10 1   
    26     9    12 1   
    27     9    25 1   
    28    10    11 1   
    29    10    26 1   
    30    10    27 1   
    31    12    13 1   
    32    12    14 2   
    33    13    16 1   
    34    13    24 1   
    35    16    17 ar  
    36    16    23 ar  
    37    17    18 1   
    38    17    19 ar  
    39    18    44 1   
    40    18    45 1   
    41    18    46 1   
    42    19    20 ar  
    43    19    41 1   
    44    20    21 ar  
    45    20    42 1   
    46    21    22 1   
    47    21    23 ar  
    48    23    43 1   
@<TRIPOS>SUBSTRUCTURE
     1 744         1 TEMP              0 ****  ****    0 ROOT
