@<TRIPOS>MOLECULE
745
   40    43     1     0     0
SMALL
No Charge or Current Charge


@<TRIPOS>ATOM
      1 C1          -0.4820    -0.7170     0.3780 ca         1 745      -0.033300
      2 C2           0.3710     0.1850     1.0460 ca         1 745      -0.096000
      3 C3           1.7440     0.2370     0.7390 ca         1 745      -0.023000
      4 C4           2.2800    -0.6190    -0.2440 ca         1 745      -0.044000
      5 C5           1.4350    -1.5210    -0.9140 ca         1 745      -0.093000
      6 C6           0.0640    -1.5700    -0.6060 ca         1 745      -0.106000
      7 C10          2.5890     1.1350     1.4130 ca         1 745      -0.101000
      8 C11          3.9590     1.1860     1.1050 ca         1 745      -0.087000
      9 C12          4.5090     0.3470     0.1070 ca         1 745      -0.194900
     10 C13          3.6530    -0.5680    -0.5510 ca         1 745      -0.075000
     11 C17          5.9750     0.3720    -0.1910 ce         1 745       0.660800
     12 N18          6.6030    -0.6040    -0.7000 n2         1 745      -0.845100
     13 N19          6.6250     1.5410    -0.0560 nv         1 745      -1.032200
     14 C23         -1.9510    -0.7470     0.7290 cx         1 745      -0.080400
     15 C24         -3.0270    -0.9340    -0.3240 cx         1 745      -0.071400
     16 C25         -4.2930    -0.1100    -0.3320 ca         1 745      -0.047300
     17 C26         -4.9580     0.2450     0.8630 ca         1 745      -0.106000
     18 C27         -6.1340     1.0140     0.8250 ca         1 745      -0.108000
     19 C28         -6.6600     1.4370    -0.4060 ca         1 745      -0.110000
     20 C29         -6.0070     1.0910    -1.6000 ca         1 745      -0.108000
     21 C30         -4.8310     0.3220    -1.5620 ca         1 745      -0.106000
     22 C7          -2.7690    -2.0190     0.6990 cx         1 745      -0.106400
     23 H2          -0.0330     0.8480     1.8060 ha         1 745       0.116000
     24 H5           1.8360    -2.1860    -1.6760 ha         1 745       0.115000
     25 H6          -0.5670    -2.2750    -1.1400 ha         1 745       0.113000
     26 H10          2.1870     1.7920     2.1810 ha         1 745       0.117000
     27 H11          4.5940     1.8770     1.6580 ha         1 745       0.125000
     28 H13          4.0460    -1.2330    -1.3170 ha         1 745       0.118000
     29 H18          5.9780    -1.4200    -0.6840 hn         1 745       0.387400
     30 H191         7.4950     1.5820    -0.5720 hn         1 745       0.468500
     31 H192         6.0450     2.3700    -0.0990 hn         1 745       0.468500
     32 H23         -2.1860    -0.0570     1.5370 hc         1 745       0.085700
     33 H24         -2.6800    -1.1480    -1.3320 hc         1 745       0.084700
     34 H26         -4.5700    -0.0710     1.8280 ha         1 745       0.110000
     35 H27         -6.6380     1.2810     1.7510 ha         1 745       0.111500
     36 H28         -7.5700     2.0330    -0.4350 ha         1 745       0.113000
     37 H29         -6.4110     1.4190    -2.5550 ha         1 745       0.111500
     38 H30         -4.3360     0.0630    -2.4950 ha         1 745       0.110000
     39 H71         -2.2910    -2.9330     0.3570 hc         1 745       0.076700
     40 H72         -3.5010    -2.1690     1.4880 hc         1 745       0.076700
@<TRIPOS>BOND
     1     1     2 ar  
     2     1     6 ar  
     3     1    14 1   
     4     2     3 ar  
     5     2    23 1   
     6     3     4 ar  
     7     3     7 ar  
     8     4     5 ar  
     9     4    10 ar  
    10     5     6 ar  
    11     5    24 1   
    12     6    25 1   
    13     7     8 ar  
    14     7    26 1   
    15     8     9 ar  
    16     8    27 1   
    17     9    10 ar  
    18     9    11 1   
    19    10    28 1   
    20    11    12 2   
    21    11    13 1   
    22    12    29 1   
    23    13    30 1   
    24    13    31 1   
    25    14    15 1   
    26    14    22 1   
    27    14    32 1   
    28    15    16 1   
    29    15    22 1   
    30    15    33 1   
    31    16    17 ar  
    32    16    21 ar  
    33    17    18 ar  
    34    17    34 1   
    35    18    19 ar  
    36    18    35 1   
    37    19    20 ar  
    38    19    36 1   
    39    20    21 ar  
    40    20    37 1   
    41    21    38 1   
    42    22    39 1   
    43    22    40 1   
@<TRIPOS>SUBSTRUCTURE
     1 745         1 TEMP              0 ****  ****    0 ROOT
