@<TRIPOS>MOLECULE
745
   40    43     1     0     0
SMALL
bcc


@<TRIPOS>ATOM
      1 C1          -0.5110    -0.7710     0.4230 ca         1 745      -0.033300
      2 C2           0.3090     0.1430     1.0370 ca         1 745      -0.114000
      3 C3           1.6860     0.2250     0.7330 ca         1 745      -0.023000
      4 C4           2.2360    -0.6610    -0.2270 ca         1 745      -0.044000
      5 C5           1.3800    -1.5990    -0.8510 ca         1 745      -0.111000
      6 C6           0.0520    -1.6530    -0.5360 ca         1 745      -0.124000
      7 C10          2.5400     1.1670     1.3530 ca         1 745      -0.119000
      8 C11          3.8670     1.2300     1.0310 ca         1 745      -0.105000
      9 C12          4.4220     0.3420     0.0770 ca         1 745      -0.194900
     10 C13          3.6110    -0.5830    -0.5320 ca         1 745      -0.093000
     11 C17          5.8720     0.3950    -0.2630 ce         1 745       0.660800
     12 N18          6.5930    -0.6250    -0.5350 n2         1 745      -0.845100
     13 N19          6.4230     1.6410    -0.2270 nv         1 745      -0.921800
     14 C23         -1.9510    -0.8070     0.7600 cx         1 745      -0.080400
     15 C24         -2.9980    -0.9600    -0.3310 cx         1 745      -0.071400
     16 C25         -4.2170    -0.1170    -0.3230 ca         1 745      -0.047300
     17 C26         -4.9470     0.1290     0.8400 ca         1 745      -0.124000
     18 C27         -6.0770     0.9340     0.8130 ca         1 745      -0.126000
     19 C28         -6.5020     1.5090    -0.3790 ca         1 745      -0.128000
     20 C29         -5.7850     1.2690    -1.5430 ca         1 745      -0.126000
     21 C30         -4.6540     0.4640    -1.5130 ca         1 745      -0.124000
     22 C7          -2.7730    -2.0540     0.6640 cx         1 745      -0.106400
     23 H2          -0.1020     0.8250     1.7740 ha         1 745       0.134000
     24 H5           1.7910    -2.2800    -1.5860 ha         1 745       0.133000
     25 H6          -0.5740    -2.3850    -1.0300 ha         1 745       0.131000
     26 H10          2.1300     1.8420     2.0940 ha         1 745       0.135000
     27 H11          4.5020     1.9520     1.5260 ha         1 745       0.143000
     28 H13          4.0160    -1.2550    -1.2800 ha         1 745       0.136000
     29 H18          6.0610    -1.4790    -0.4150 hn         1 745       0.387400
     30 H191         7.3640     1.7200    -0.5790 hn         1 745       0.413300
     31 H192         5.8360     2.4300    -0.4400 hn         1 745       0.413300
     32 H23         -2.2280    -0.1270     1.5590 hc         1 745       0.085700
     33 H24         -2.5960    -1.1420    -1.3230 hc         1 745       0.084700
     34 H26         -4.6400    -0.3090     1.7820 ha         1 745       0.128000
     35 H27         -6.6280     1.1110     1.7270 ha         1 745       0.129500
     36 H28         -7.3840     2.1360    -0.3990 ha         1 745       0.131000
     37 H29         -6.1050     1.7090    -2.4790 ha         1 745       0.129500
     38 H30         -4.1030     0.2840    -2.4290 ha         1 745       0.128000
     39 H71         -2.2990    -2.9630     0.3160 hc         1 745       0.076700
     40 H72         -3.5230    -2.2130     1.4290 hc         1 745       0.076700
@<TRIPOS>BOND
     1     1     2 ar  
     2     1     6 ar  
     3     1    14 1   
     4     2     3 ar  
     5     2    23 1   
     6     3     4 ar  
     7     3     7 ar  
     8     4     5 ar  
     9     4    10 ar  
    10     5     6 ar  
    11     5    24 1   
    12     6    25 1   
    13     7     8 ar  
    14     7    26 1   
    15     8     9 ar  
    16     8    27 1   
    17     9    10 ar  
    18     9    11 1   
    19    10    28 1   
    20    11    12 2   
    21    11    13 1   
    22    12    29 1   
    23    13    30 1   
    24    13    31 1   
    25    14    15 1   
    26    14    22 1   
    27    14    32 1   
    28    15    16 1   
    29    15    22 1   
    30    15    33 1   
    31    16    17 ar  
    32    16    21 ar  
    33    17    18 ar  
    34    17    34 1   
    35    18    19 ar  
    36    18    35 1   
    37    19    20 ar  
    38    19    36 1   
    39    20    21 ar  
    40    20    37 1   
    41    21    38 1   
    42    22    39 1   
    43    22    40 1   
@<TRIPOS>SUBSTRUCTURE
     1 745         1 TEMP              0 ****  ****    0 ROOT
