@<TRIPOS>MOLECULE
746
   80    84     1     0     0
SMALL
No Charge or Current Charge


@<TRIPOS>ATOM
      1 C1          -1.4750    -3.5210     0.7420 ca         1 746      -0.019800
      2 C2          -0.1980    -3.0290     0.3510 ca         1 746      -0.067300
      3 C3          -0.0620    -2.1010    -0.8660 c3         1 746      -0.044800
      4 C4           0.9590    -3.4190     1.0790 ca         1 746      -0.042000
      5 C5           0.8260    -4.2940     2.1780 ca         1 746      -0.089000
      6 C7          -0.4320    -4.7880     2.5480 ca         1 746      -0.102000
      7 C9          -1.5730    -4.4010     1.8370 ca         1 746      -0.108000
      8 C11         -2.7160    -3.1110     0.0720 cc         1 746       0.125400
      9 N12         -3.0620    -1.7760    -0.0140 nc         1 746      -0.601300
     10 C13         -4.2110    -1.5150    -0.6310 cd         1 746       0.590200
     11 C14         -5.1380    -2.5520    -1.2610 c          1 746       0.412700
     12 O15         -6.1840    -2.2780    -1.8540 o          1 746      -0.563000
     13 N16         -4.6900    -3.8800    -1.1110 n          1 746      -0.251000
     14 C17         -3.4930    -4.1320    -0.4500 cd         1 746      -0.126400
     15 N19          2.2250    -2.8820     0.7030 ns         1 746      -0.161000
     16 C21          3.5300    -3.2740     0.9840 c          1 746       0.618700
     17 O22          3.8030    -4.2860     1.6210 o          1 746      -0.583100
     18 C23          4.6220    -2.3740     0.4300 ca         1 746      -0.159600
     19 C24          5.9760    -2.7030     0.6510 ca         1 746      -0.070500
     20 C26          7.0080    -1.8920     0.1530 ca         1 746      -0.120000
     21 C28          6.7310    -0.7200    -0.5860 ca         1 746      -0.037300
     22 C29          5.3710    -0.3910    -0.8050 ca         1 746      -0.120000
     23 C31          4.3360    -1.2010    -0.3080 ca         1 746      -0.070500
     24 C33          7.9040     0.1470    -1.1180 c3         1 746      -0.004700
     25 C34          8.7850    -0.7090    -2.0670 c3         1 746      -0.083433
     26 C38          7.4280     1.3990    -1.9090 c3         1 746      -0.083433
     27 C42          8.7630     0.6380     0.0790 c3         1 746      -0.083433
     28 C46         -4.0520     1.0200    -0.2410 ca         1 746       0.335000
     29 N47         -4.5480    -0.1820    -0.7540 nu         1 746      -0.888200
     30 C48         -4.3330     2.2040    -0.9400 ca         1 746      -0.169000
     31 C49         -3.8720     3.4460    -0.4700 ca         1 746      -0.042500
     32 C50         -3.1130     3.5240     0.7190 ca         1 746      -0.184600
     33 C51         -2.8700     2.3380     1.4430 ca         1 746      -0.042500
     34 C52         -3.3330     1.1000     0.9650 ca         1 746      -0.169000
     35 C60         -5.5030    -4.9830    -1.6720 c3         1 746       0.076300
     36 C71         -2.6210     4.8470     1.2660 c          1 746       0.620700
     37 O72         -2.5420     5.0230     2.4760 o          1 746      -0.596100
     38 C81         -0.2240     6.1530    -0.9770 c6         1 746       0.127100
     39 C82         -1.6940     5.6530    -0.9600 c6         1 746       0.056000
     40 N83         -2.3530     5.9010     0.3620 n          1 746      -0.404800
     41 C84         -2.1590     7.3040     0.8410 c6         1 746       0.056000
     42 C85         -0.6720     7.7360     0.7820 c6         1 746       0.127100
     43 O86         -0.1560     7.5310    -0.5510 os         1 746      -0.446000
     44 H3          -0.1230    -1.0480    -0.5640 hc         1 746       0.045367
     45 H3A          0.8840    -2.2450    -1.3990 hc         1 746       0.045367
     46 H3B         -0.8470    -2.2810    -1.6090 hc         1 746       0.045367
     47 H5           1.6850    -4.5890     2.7730 ha         1 746       0.132000
     48 H7          -0.5230    -5.4590     3.4000 ha         1 746       0.119000
     49 H9          -2.5460    -4.7730     2.1500 ha         1 746       0.113000
     50 H17         -3.2240    -5.1820    -0.3900 h4         1 746       0.217000
     51 HN19         2.1590    -2.0530     0.1300 hn         1 746       0.157000
     52 H24          6.2390    -3.5970     1.2150 ha         1 746       0.123000
     53 H26          8.0350    -2.1870     0.3480 ha         1 746       0.117000
     54 H29          5.0870     0.4950    -1.3640 ha         1 746       0.117000
     55 H31          3.3120    -0.8940    -0.5080 ha         1 746       0.123000
     56 H34          8.1890    -1.0990    -2.9010 hc         1 746       0.036922
     57 H34A         9.6050    -0.1140    -2.4860 hc         1 746       0.036922
     58 H34B         9.2320    -1.5630    -1.5450 hc         1 746       0.036922
     59 H38          6.8200     2.0590    -1.2770 hc         1 746       0.036922
     60 H38A         8.2830     1.9840    -2.2670 hc         1 746       0.036922
     61 H38B         6.8350     1.1110    -2.7860 hc         1 746       0.036922
     62 H42          9.2090    -0.1990     0.6280 hc         1 746       0.036922
     63 H42A         9.5820     1.2820    -0.2630 hc         1 746       0.036922
     64 H42B         8.1500     1.2150     0.7830 hc         1 746       0.036922
     65 HN47        -5.3200    -0.0720    -1.4090 hn         1 746       0.523000
     66 H48         -4.9100     2.1670    -1.8600 ha         1 746       0.136000
     67 H49         -4.1250     4.3470    -1.0260 ha         1 746       0.123500
     68 H51         -2.3160     2.3730     2.3790 ha         1 746       0.123500
     69 H52         -3.1400     0.2110     1.5540 ha         1 746       0.136000
     70 H60         -6.5060    -4.9660    -1.2280 h1         1 746       0.059033
     71 H60A        -5.5890    -4.8630    -2.7590 h1         1 746       0.059033
     72 H60B        -5.0390    -5.9540    -1.4590 h1         1 746       0.059033
     73 H81A         0.1900     6.0680    -1.9920 h1         1 746       0.053950
     74 H82         -2.2610     6.1680    -1.7480 h1         1 746       0.066950
     75 H82A        -1.6870     4.5830    -1.2050 h1         1 746       0.066950
     76 H84         -2.7510     7.9790     0.2070 h1         1 746       0.066950
     77 H84A        -2.5340     7.4230     1.8670 h1         1 746       0.066950
     78 H85         -0.5780     8.7990     1.0460 h1         1 746       0.053950
     79 H85A        -0.0780     7.1500     1.4980 h1         1 746       0.053950
     80 H81          0.3910     5.5360    -0.3050 h1         1 746       0.053950
@<TRIPOS>BOND
     1     1     2 ar  
     2     1     7 ar  
     3     1     8 1   
     4     2     3 1   
     5     2     4 ar  
     6     3    44 1   
     7     3    45 1   
     8     3    46 1   
     9     4     5 ar  
    10     4    15 1   
    11     5     6 ar  
    12     5    47 1   
    13     6     7 ar  
    14     6    48 1   
    15     7    49 1   
    16     8     9 1   
    17     8    14 2   
    18     9    10 2   
    19    10    11 1   
    20    10    29 1   
    21    11    12 2   
    22    11    13 1   
    23    13    14 1   
    24    13    35 1   
    25    14    50 1   
    26    15    16 1   
    27    15    51 1   
    28    16    17 2   
    29    16    18 1   
    30    18    19 ar  
    31    18    23 ar  
    32    19    20 ar  
    33    19    52 1   
    34    20    21 ar  
    35    20    53 1   
    36    21    22 ar  
    37    21    24 1   
    38    22    23 ar  
    39    22    54 1   
    40    23    55 1   
    41    24    25 1   
    42    24    26 1   
    43    24    27 1   
    44    25    56 1   
    45    25    57 1   
    46    25    58 1   
    47    26    59 1   
    48    26    60 1   
    49    26    61 1   
    50    27    62 1   
    51    27    63 1   
    52    27    64 1   
    53    28    29 1   
    54    28    30 ar  
    55    28    34 ar  
    56    29    65 1   
    57    30    31 ar  
    58    30    66 1   
    59    31    32 ar  
    60    31    67 1   
    61    32    33 ar  
    62    32    36 1   
    63    33    34 ar  
    64    33    68 1   
    65    34    69 1   
    66    35    70 1   
    67    35    71 1   
    68    35    72 1   
    69    36    37 2   
    70    36    40 1   
    71    38    39 1   
    72    38    43 1   
    73    38    73 1   
    74    38    80 1   
    75    39    40 1   
    76    39    74 1   
    77    39    75 1   
    78    40    41 1   
    79    41    42 1   
    80    41    76 1   
    81    41    77 1   
    82    42    43 1   
    83    42    78 1   
    84    42    79 1   
@<TRIPOS>SUBSTRUCTURE
     1 746         1 TEMP              0 ****  ****    0 ROOT
