@<TRIPOS>MOLECULE
746
   80    84     1     0     0
SMALL
bcc


@<TRIPOS>ATOM
      1 C1          -1.3800    -3.4820     0.8350 ca         1 746      -0.019800
      2 C2          -0.1560    -2.8950     0.4810 ca         1 746      -0.067300
      3 C3          -0.0180    -1.9900    -0.7110 c3         1 746      -0.044800
      4 C4           0.9720    -3.2040     1.2490 ca         1 746       0.050600
      5 C5           0.9020    -4.1060     2.3060 ca         1 746      -0.107000
      6 C7          -0.3020    -4.7160     2.6090 ca         1 746      -0.120000
      7 C9          -1.4390    -4.3950     1.8850 ca         1 746      -0.126000
      8 C11         -2.6260    -3.1420     0.1160 cc         1 746       0.125400
      9 N12         -2.9720    -1.8240     0.0420 nc         1 746      -0.601300
     10 C13         -4.0640    -1.4980    -0.5650 cd         1 746       0.590200
     11 C14         -4.9690    -2.4750    -1.2050 c          1 746       0.555200
     12 O15         -5.9780    -2.1410    -1.8180 o          1 746      -0.638500
     13 N16         -4.5790    -3.7670    -1.0560 n          1 746      -0.318000
     14 C17         -3.4100    -4.1020    -0.4220 cd         1 746      -0.076400
     15 N19          2.1910    -2.5610     0.9540 ns         1 746      -0.487100
     16 C21          3.3630    -3.2070     0.7270 c          1 746       0.685700
     17 O22          3.4670    -4.4210     0.7750 o          1 746      -0.583100
     18 C23          4.5260    -2.3370     0.3940 ca         1 746      -0.159600
     19 C24          5.6010    -2.9040    -0.2900 ca         1 746      -0.088500
     20 C26          6.7010    -2.1410    -0.6290 ca         1 746      -0.138000
     21 C28          6.7880    -0.7870    -0.2900 ca         1 746      -0.037300
     22 C29          5.7190    -0.2360     0.4100 ca         1 746      -0.138000
     23 C31          4.6050    -0.9940     0.7470 ca         1 746      -0.088500
     24 C33          8.0230     0.0130    -0.6830 c3         1 746      -0.004700
     25 C34          8.1990    -0.0510    -2.2070 c3         1 746      -0.083433
     26 C38          7.9220     1.4820    -0.2700 c3         1 746      -0.083433
     27 C42          9.2570    -0.5970    -0.0030 c3         1 746      -0.083433
     28 C46         -3.9210     0.9700    -0.2650 ca         1 746       0.196600
     29 N47         -4.4970    -0.2160    -0.6840 nu         1 746      -0.694600
     30 C48         -4.6460     2.1430    -0.5110 ca         1 746      -0.187000
     31 C49         -4.1440     3.3740    -0.1460 ca         1 746      -0.060500
     32 C50         -2.9030     3.4810     0.4820 ca         1 746      -0.184600
     33 C51         -2.2000     2.3130     0.7530 ca         1 746      -0.060500
     34 C52         -2.6820     1.0690     0.3780 ca         1 746      -0.187000
     35 C60         -5.3970    -4.8110    -1.6580 c3         1 746       0.076300
     36 C71         -2.3700     4.7810     0.9820 c          1 746       0.687700
     37 O72         -1.9010     4.8460     2.1120 o          1 746      -0.596100
     38 C81         -1.1910     6.2800    -1.8510 c6         1 746       0.103900
     39 C82         -2.5230     5.8140    -1.2810 c6         1 746       0.056000
     40 N83         -2.4740     5.8620     0.1730 n          1 746      -0.471800
     41 C84         -2.0780     7.1760     0.6530 c6         1 746       0.056000
     42 C85         -0.7580     7.5920     0.0260 c6         1 746       0.103900
     43 O86         -0.8330     7.5600    -1.3830 os         1 746      -0.399600
     44 H3          -0.0250    -0.9350    -0.4290 hc         1 746       0.045367
     45 H3A          0.9200    -2.1800    -1.2330 hc         1 746       0.045367
     46 H3B         -0.8240    -2.1350    -1.4250 hc         1 746       0.045367
     47 H5           1.7790    -4.3090     2.9050 ha         1 746       0.150000
     48 H7          -0.3600    -5.4200     3.4290 ha         1 746       0.137000
     49 H9          -2.3900    -4.8380     2.1510 ha         1 746       0.131000
     50 H17         -3.1690    -5.1540    -0.3820 h4         1 746       0.167000
     51 HN19         2.1430    -1.5750     0.7510 hn         1 746       0.323500
     52 H24          5.5690    -3.9480    -0.5730 ha         1 746       0.141000
     53 H26          7.5070    -2.6180    -1.1720 ha         1 746       0.135000
     54 H29          5.7340     0.8020     0.7110 ha         1 746       0.135000
     55 H31          3.8170    -0.5120     1.3130 ha         1 746       0.141000
     56 H34          7.3320     0.3640    -2.7240 hc         1 746       0.036922
     57 H34A         9.0760     0.5260    -2.5090 hc         1 746       0.036922
     58 H34B         8.3410    -1.0720    -2.5620 hc         1 746       0.036922
     59 H38          7.8310     1.5990     0.8110 hc         1 746       0.036922
     60 H38A         8.8240     2.0100    -0.5810 hc         1 746       0.036922
     61 H38B         7.0710     1.9810    -0.7380 hc         1 746       0.036922
     62 H42          9.4070    -1.6410    -0.2820 hc         1 746       0.036922
     63 H42A        10.1550    -0.0470    -0.2930 hc         1 746       0.036922
     64 H42B         9.1720    -0.5510     1.0840 hc         1 746       0.036922
     65 HN47        -5.3830    -0.1260    -1.1620 hn         1 746       0.467800
     66 H48         -5.6180     2.0820    -0.9870 ha         1 746       0.154000
     67 H49         -4.7390     4.2580    -0.3390 ha         1 746       0.141500
     68 H51         -1.2460     2.3650     1.2610 ha         1 746       0.141500
     69 H52         -2.1050     0.1840     0.5860 ha         1 746       0.154000
     70 H60         -6.4500    -4.6000    -1.4990 h1         1 746       0.059033
     71 H60A        -5.2050    -4.8800    -2.7280 h1         1 746       0.059033
     72 H60B        -5.1560    -5.7590    -1.1870 h1         1 746       0.059033
     73 H81A        -1.2570     6.3350    -2.9380 h1         1 746       0.053950
     74 H82         -3.3340     6.4570    -1.6350 h1         1 746       0.066950
     75 H82A        -2.7210     4.8060    -1.6370 h1         1 746       0.066950
     76 H84         -2.8600     7.8880     0.3730 h1         1 746       0.066950
     77 H84A        -2.0010     7.1790     1.7370 h1         1 746       0.066950
     78 H85         -0.5130     8.6140     0.3170 h1         1 746       0.053950
     79 H85A         0.0440     6.9330     0.3880 h1         1 746       0.053950
     80 H81         -0.4150     5.5430    -1.5960 h1         1 746       0.053950
@<TRIPOS>BOND
     1     1     2 ar  
     2     1     7 ar  
     3     1     8 1   
     4     2     3 1   
     5     2     4 ar  
     6     3    44 1   
     7     3    45 1   
     8     3    46 1   
     9     4     5 ar  
    10     4    15 1   
    11     5     6 ar  
    12     5    47 1   
    13     6     7 ar  
    14     6    48 1   
    15     7    49 1   
    16     8     9 1   
    17     8    14 2   
    18     9    10 2   
    19    10    11 1   
    20    10    29 1   
    21    11    12 2   
    22    11    13 1   
    23    13    14 1   
    24    13    35 1   
    25    14    50 1   
    26    15    16 1   
    27    15    51 1   
    28    16    17 2   
    29    16    18 1   
    30    18    19 ar  
    31    18    23 ar  
    32    19    20 ar  
    33    19    52 1   
    34    20    21 ar  
    35    20    53 1   
    36    21    22 ar  
    37    21    24 1   
    38    22    23 ar  
    39    22    54 1   
    40    23    55 1   
    41    24    25 1   
    42    24    26 1   
    43    24    27 1   
    44    25    56 1   
    45    25    57 1   
    46    25    58 1   
    47    26    59 1   
    48    26    60 1   
    49    26    61 1   
    50    27    62 1   
    51    27    63 1   
    52    27    64 1   
    53    28    29 1   
    54    28    30 ar  
    55    28    34 ar  
    56    29    65 1   
    57    30    31 ar  
    58    30    66 1   
    59    31    32 ar  
    60    31    67 1   
    61    32    33 ar  
    62    32    36 1   
    63    33    34 ar  
    64    33    68 1   
    65    34    69 1   
    66    35    70 1   
    67    35    71 1   
    68    35    72 1   
    69    36    37 2   
    70    36    40 1   
    71    38    39 1   
    72    38    43 1   
    73    38    73 1   
    74    38    80 1   
    75    39    40 1   
    76    39    74 1   
    77    39    75 1   
    78    40    41 1   
    79    41    42 1   
    80    41    76 1   
    81    41    77 1   
    82    42    43 1   
    83    42    78 1   
    84    42    79 1   
@<TRIPOS>SUBSTRUCTURE
     1 746         1 TEMP              0 ****  ****    0 ROOT
