@<TRIPOS>MOLECULE
747
   29    30     1     0     0
SMALL
No Charge or Current Charge


@<TRIPOS>ATOM
      1 F1          -2.9910    -2.3460     0.8700 f          1 747      -0.169500
      2 C2          -2.8500    -1.0600     0.4710 ca         1 747       0.112500
      3 C1          -3.9600    -0.3500    -0.0290 ca         1 747       0.090100
      4 O1          -5.1920    -0.9560    -0.1220 oh         1 747      -0.502100
      5 C3          -1.5910    -0.4450     0.5690 ca         1 747      -0.089500
      6 C4          -1.4150     0.8940     0.1600 ca         1 747      -0.073800
      7 C5          -2.5280     1.6080    -0.3290 ca         1 747      -0.089500
      8 C           -3.7870     0.9920    -0.4270 ca         1 747       0.112500
      9 F           -4.8340     1.7040    -0.9070 f          1 747      -0.169500
     10 C6          -0.0920     1.5840     0.2600 ce         1 747      -0.020200
     11 C7           1.1930     1.0910     0.1430 cd         1 747      -0.026600
     12 C10          2.4090     1.9180     0.2540 c          1 747       0.539200
     13 C12          2.8050    -0.2660    -0.1650 cc         1 747       0.414600
     14 N13          1.4640    -0.2520    -0.1120 nd         1 747      -0.566300
     15 O14          2.5380     3.1170     0.4660 o          1 747      -0.504000
     16 N15          3.3880     0.9760     0.0540 n          1 747      -0.358300
     17 C16          4.8320     1.2900     0.0830 c3         1 747       0.097300
     18 C17          3.6350    -1.4710    -0.3720 ce         1 747       0.312900
     19 N18          3.1940    -2.6750    -0.1340 n2         1 747      -0.265700
     20 O19          4.1500    -3.6920    -0.3030 oh         1 747      -0.504000
     21 H1          -5.1090    -1.8800     0.2020 ho         1 747       0.484000
     22 H2          -0.7600    -1.0140     0.9750 ha         1 747       0.156500
     23 H3          -2.4200     2.6440    -0.6430 ha         1 747       0.156500
     24 H4          -0.1530     2.6620     0.4220 ha         1 747       0.197000
     25 H5           5.2680     1.1150    -0.9090 h1         1 747       0.053367
     26 H6           4.9950     2.3390     0.3610 h1         1 747       0.053367
     27 H7           5.3360     0.6490     0.8170 h1         1 747       0.053367
     28 H8           4.6890    -1.2890    -0.5950 h4         1 747       0.021800
     29 H9           3.6710    -4.5310    -0.0910 ho         1 747       0.483000
@<TRIPOS>BOND
     1     1     2 1   
     2     2     3 ar  
     3     2     5 ar  
     4     3     4 1   
     5     3     8 ar  
     6     4    21 1   
     7     5     6 ar  
     8     5    22 1   
     9     6     7 ar  
    10     6    10 1   
    11     7     8 ar  
    12     7    23 1   
    13     8     9 1   
    14    10    11 2   
    15    10    24 1   
    16    11    12 1   
    17    11    14 1   
    18    12    15 2   
    19    12    16 1   
    20    13    14 2   
    21    13    16 1   
    22    13    18 1   
    23    16    17 1   
    24    17    25 1   
    25    17    26 1   
    26    17    27 1   
    27    18    19 2   
    28    18    28 1   
    29    19    20 1   
    30    20    29 1   
@<TRIPOS>SUBSTRUCTURE
     1 747         1 TEMP              0 ****  ****    0 ROOT
