@<TRIPOS>MOLECULE
747
   29    30     1     0     0
SMALL
abcg2


@<TRIPOS>ATOM
      1 F1          -2.8750    -2.4360     0.0650 f          1 747      -0.169500
      2 C2          -2.7420    -1.0990     0.0530 ca         1 747       0.112500
      3 C1          -3.9170    -0.3500     0.0490 ca         1 747       0.090100
      4 O1          -5.1480    -0.8660     0.0550 oh         1 747      -0.502100
      5 C3          -1.4900    -0.5390     0.0470 ca         1 747      -0.089500
      6 C4          -1.3640     0.8560     0.0350 ca         1 747      -0.073800
      7 C5          -2.5280     1.6350     0.0300 ca         1 747      -0.089500
      8 C           -3.7630     1.0330     0.0360 ca         1 747       0.112500
      9 F           -4.8730     1.7800     0.0310 f          1 747      -0.169500
     10 C6          -0.0950     1.5480     0.0290 ce         1 747      -0.020200
     11 C7           1.1530     1.0360     0.0290 cd         1 747      -0.026600
     12 C10          2.3640     1.8910     0.0210 c          1 747       0.539200
     13 C12          2.8270    -0.2870     0.0300 cc         1 747       0.414600
     14 N13          1.5340    -0.2910     0.0350 nd         1 747      -0.566300
     15 O14          2.4780     3.0990     0.0140 o          1 747      -0.504000
     16 N15          3.3900     0.9710     0.0220 n          1 747      -0.358300
     17 C16          4.7970     1.2990     0.0140 c3         1 747       0.097300
     18 C17          3.6740    -1.4670     0.0330 ce         1 747       0.312900
     19 N18          3.1190    -2.6110     0.0380 n2         1 747      -0.265700
     20 O19          4.0050    -3.6190     0.0390 oh         1 747      -0.504000
     21 H1          -5.1250    -1.8300     0.0620 ho         1 747       0.484000
     22 H2          -0.6170    -1.1780     0.0520 ha         1 747       0.156500
     23 H3          -2.4660     2.7160     0.0210 ha         1 747       0.156500
     24 H4          -0.1560     2.6310     0.0230 ha         1 747       0.197000
     25 H5           5.2870     0.9060    -0.8760 h1         1 747       0.053367
     26 H6           4.8940     2.3810     0.0090 h1         1 747       0.053367
     27 H7           5.2960     0.9130     0.9020 h1         1 747       0.053367
     28 H8           4.7550    -1.3450     0.0290 h4         1 747       0.021800
     29 H9           3.4710    -4.4220     0.0430 ho         1 747       0.483000
@<TRIPOS>BOND
     1     1     2 1   
     2     2     3 ar  
     3     2     5 ar  
     4     3     4 1   
     5     3     8 ar  
     6     4    21 1   
     7     5     6 ar  
     8     5    22 1   
     9     6     7 ar  
    10     6    10 1   
    11     7     8 ar  
    12     7    23 1   
    13     8     9 1   
    14    10    11 2   
    15    10    24 1   
    16    11    12 1   
    17    11    14 1   
    18    12    15 2   
    19    12    16 1   
    20    13    14 2   
    21    13    16 1   
    22    13    18 1   
    23    16    17 1   
    24    17    25 1   
    25    17    26 1   
    26    17    27 1   
    27    18    19 2   
    28    18    28 1   
    29    19    20 1   
    30    20    29 1   
@<TRIPOS>SUBSTRUCTURE
     1 747         1 TEMP              0 ****  ****    0 ROOT
