@<TRIPOS>MOLECULE
748
   78    82     1     0     0
SMALL
abcg2


@<TRIPOS>ATOM
      1 C4          -6.4350     1.9430     0.8070 cp         1 748       0.236500
      2 C5          -5.2910     2.7410     0.7400 ca         1 748      -0.267000
      3 C6          -4.1010     2.0810     0.5140 ca         1 748       0.148900
      4 N1          -4.0140     0.7670     0.3570 nb         1 748      -0.234000
      5 N3          -6.3600     0.6320     0.6460 nb         1 748      -0.258000
      6 C2          -5.1580     0.0960     0.4240 ca         1 748       0.394900
      7 CAB          5.1530     4.9420     0.5330 c3         1 748       0.148100
      8 CAC          3.3360     3.4070     0.5070 c3         1 748       0.148100
      9 CAF          9.4220     1.3830     1.9570 ca         1 748      -0.168000
     10 CAG        -10.1640     2.3450     0.9440 ca         1 748      -0.174000
     11 CAH          9.5290     0.3470     2.8720 ca         1 748       0.350900
     12 CAI        -10.2230     3.6090     1.5120 ca         1 748       0.350900
     13 CAK          8.6290     1.1950     0.8360 ca         1 748      -0.044000
     14 CAL         -8.9230     1.7820     0.7100 ca         1 748      -0.028000
     15 CAM          2.8170    -0.1290    -1.9330 ca         1 748      -0.107000
     16 CAN          4.1490    -2.0240    -1.3250 ca         1 748      -0.107000
     17 CAO         -3.5780    -4.4870    -0.2510 ca         1 748      -0.057000
     18 CAQ         -2.2440    -4.1620    -0.4610 ca         1 748      -0.156000
     19 CAR          1.6620    -0.8560    -1.6820 ca         1 748      -0.073500
     20 CAS          3.0000    -2.7540    -1.0810 ca         1 748      -0.073500
     21 CAT          8.1770    -1.0030     1.6390 ca         1 748       0.375900
     22 CAU         -7.9570     3.7600     1.6200 ca         1 748       0.360900
     23 CAV         -2.8450    -1.8440    -0.1850 ca         1 748      -0.202000
     24 CAW          5.5210     2.7120    -0.2310 c3         1 748       0.148800
     25 CAX          5.4410     1.2400     0.1640 c3         1 748       0.097000
     26 CBF          0.5390    -3.0250    -0.9930 c          1 748       0.621700
     27 CBG          7.1940    -0.3600    -0.5540 c          1 748       0.621700
     28 CBH          4.0720    -0.7000    -1.7560 ca         1 748      -0.089300
     29 CBI         -4.5610    -3.5430    -0.0070 ca         1 748      -0.157300
     30 CBJ         -1.8790    -2.8220    -0.4300 ca         1 748       0.007000
     31 CBK          1.7420    -2.1740    -1.2450 ca         1 748      -0.149600
     32 CBL          7.9820    -0.0220     0.6710 ca         1 748      -0.198600
     33 CBM         -7.7780     2.5030     1.0440 cp         1 748      -0.216500
     34 CBO         -4.1760    -2.1870     0.0280 ca         1 748       0.348000
     35 NAZ          8.9200    -0.8240     2.7210 nb         1 748      -0.666000
     36 NBA         -9.1430     4.3040     1.8510 nb         1 748      -0.670000
     37 NBE         -5.1810    -1.2580     0.2680 nu         1 748      -0.928900
     38 NBQ          4.7670     3.5540     0.6770 n3         1 748      -0.711600
     39 NBR          6.0800     0.3610    -0.8030 n          1 748      -0.403800
     40 OAD          0.5950    -4.2380    -1.1030 o          1 748      -0.577100
     41 OAE          7.5880    -1.2630    -1.2780 o          1 748      -0.589100
     42 H1          -5.3170     3.8150     0.8380 ha         1 748       0.138000
     43 H2          -3.1710     2.6350     0.4520 h4         1 748       0.022100
     44 H3          -6.3760    -3.6320     1.1750 hc         1 748       0.041033
     45 H4          -6.6540    -3.5670    -0.5630 hc         1 748       0.041033
     46 H5          -6.0760    -5.0460     0.1790 hc         1 748       0.041033
     47 H6           4.6160     5.5540     1.2590 h1         1 748       0.032200
     48 H7           6.2210     5.0600     0.7250 h1         1 748       0.032200
     49 H8           4.9440     5.3480    -0.4690 h1         1 748       0.032200
     50 H9           2.9960     3.6500    -0.5120 h1         1 748       0.032200
     51 H10          3.0090     2.3920     0.7320 h1         1 748       0.032200
     52 H11          2.8140     4.0690     1.1990 h1         1 748       0.032200
     53 H12          9.9490     2.3120     2.1190 ha         1 748       0.127000
     54 H13        -11.0740     1.8180     0.6900 ha         1 748       0.128000
     55 H14         10.1370     0.4660     3.7620 h4         1 748       0.022100
     56 H15        -11.1810     4.0790     1.7050 h4         1 748       0.022100
     57 H16          8.5340     1.9800     0.0980 ha         1 748       0.122000
     58 H17         -8.8360     0.7990     0.2670 ha         1 748       0.139000
     59 H18          2.7350     0.8950    -2.2760 ha         1 748       0.124000
     60 H19          5.1140    -2.4940    -1.1870 ha         1 748       0.124000
     61 H20         -3.8610    -5.5320    -0.2740 ha         1 748       0.114000
     62 H21         -1.5260    -4.9450    -0.6360 ha         1 748       0.151000
     63 H22          0.7070    -0.3790    -1.8640 ha         1 748       0.126500
     64 H23          3.0810    -3.7830    -0.7570 ha         1 748       0.126500
     65 H24          7.6980    -1.9710     1.5360 h4         1 748       0.031100
     66 H25         -7.1000     4.3520     1.9250 h4         1 748       0.020100
     67 H26         -2.5570    -0.8040    -0.1660 ha         1 748       0.146000
     68 H27          6.5670     3.0240    -0.1980 h1         1 748       0.034200
     69 H28          5.1940     2.8500    -1.2760 h1         1 748       0.034200
     70 H29          5.8860     1.1020     1.1470 h1         1 748       0.063200
     71 H30          4.4010     0.9190     0.2590 h1         1 748       0.063200
     72 H31          5.9630    -0.4160    -2.7280 h1         1 748       0.070200
     73 H32          5.0510     1.0570    -2.4750 h1         1 748       0.070200
     74 H33         -0.4730    -1.3530    -0.4860 hn         1 748       0.155000
     75 H34         -6.1140    -1.6310     0.3550 hn         1 748       0.513000
     76 NBD         -0.5770    -2.3450    -0.6330 ns         1 748      -0.143000
     77 CAA         -5.9870    -3.9620     0.2080 c3         1 748      -0.045800
     78 CAY          5.3200     0.1030    -2.0190 c3         1 748       0.133300
@<TRIPOS>BOND
     1     1     2 ar  
     2     1     5 ar  
     3     1    33 1   
     4     2     3 ar  
     5     2    42 1   
     6     3     4 ar  
     7     3    43 1   
     8     4     6 ar  
     9     5     6 ar  
    10     6    37 1   
    11     7    38 1   
    12     7    47 1   
    13     7    48 1   
    14     7    49 1   
    15     8    38 1   
    16     8    50 1   
    17     8    51 1   
    18     8    52 1   
    19     9    11 ar  
    20     9    13 ar  
    21     9    53 1   
    22    10    12 ar  
    23    10    14 ar  
    24    10    54 1   
    25    11    35 ar  
    26    11    55 1   
    27    12    36 ar  
    28    12    56 1   
    29    13    32 ar  
    30    13    57 1   
    31    14    33 ar  
    32    14    58 1   
    33    15    19 ar  
    34    15    28 ar  
    35    15    59 1   
    36    16    20 ar  
    37    16    28 ar  
    38    16    60 1   
    39    17    18 ar  
    40    17    29 ar  
    41    17    61 1   
    42    18    30 ar  
    43    18    62 1   
    44    19    31 ar  
    45    19    63 1   
    46    20    31 ar  
    47    20    64 1   
    48    21    32 ar  
    49    21    35 ar  
    50    21    65 1   
    51    22    33 ar  
    52    22    36 ar  
    53    22    66 1   
    54    23    30 ar  
    55    23    34 ar  
    56    23    67 1   
    57    24    25 1   
    58    24    38 1   
    59    24    68 1   
    60    24    69 1   
    61    25    39 1   
    62    25    70 1   
    63    25    71 1   
    64    26    31 1   
    65    26    40 2   
    66    26    76 1   
    67    27    32 1   
    68    27    39 1   
    69    27    41 2   
    70    28    78 1   
    71    29    34 ar  
    72    29    77 1   
    73    30    76 1   
    74    34    37 1   
    75    37    75 1   
    76    39    78 1   
    77    44    77 1   
    78    45    77 1   
    79    46    77 1   
    80    72    78 1   
    81    73    78 1   
    82    74    76 1   
@<TRIPOS>SUBSTRUCTURE
     1 748         1 TEMP              0 ****  ****    0 ROOT
