@<TRIPOS>MOLECULE
748
   78    82     1     0     0
SMALL
No Charge or Current Charge


@<TRIPOS>ATOM
      1 C4          -6.6040     2.1030     0.6870 cp         1 748       0.236500
      2 C5          -5.4880     2.7770     1.2410 ca         1 748      -0.267000
      3 C6          -4.2940     2.0600     1.4120 ca         1 748       0.148900
      4 N1          -4.1970     0.7670     1.0580 nb         1 748      -0.234000
      5 N3          -6.4840     0.8060     0.3350 nb         1 748      -0.258000
      6 C2          -5.2980     0.2080     0.5240 ca         1 748       0.394900
      7 CAB          4.1320     4.3380     1.4130 c3         1 748       0.148100
      8 CAC          3.3980     2.0910     2.0700 c3         1 748       0.148100
      9 CAF          9.8760     1.7630     1.1890 ca         1 748      -0.168000
     10 CAG        -10.1430     2.8430    -0.5660 ca         1 748      -0.174000
     11 CAH         10.7140     0.7160     1.6040 ca         1 748       0.350900
     12 CAI        -10.3690     4.0560     0.0980 ca         1 748       0.350900
     13 CAK          8.7870     1.4780     0.3510 ca         1 748      -0.044000
     14 CAL         -8.9180     2.1820    -0.3900 ca         1 748      -0.028000
     15 CAM          2.8080     0.0590    -1.6570 ca         1 748      -0.107000
     16 CAN          4.2070    -1.9140    -1.4940 ca         1 748      -0.107000
     17 CAO         -3.6020    -4.4510     0.2000 ca         1 748      -0.057000
     18 CAQ         -2.2740    -4.0920    -0.0810 ca         1 748      -0.156000
     19 CAR          1.6800    -0.7070    -1.3140 ca         1 748      -0.073500
     20 CAS          3.0830    -2.6840    -1.1520 ca         1 748      -0.073500
     21 CAT          9.4760    -0.8410     0.4130 ca         1 748       0.375900
     22 CAU         -8.2710     3.9890     1.0800 ca         1 748       0.360900
     23 CAV         -2.9370    -1.7660    -0.1990 ca         1 748      -0.202000
     24 CAW          5.0350     2.3820     0.2240 c3         1 748       0.148800
     25 CAX          5.6740     0.9720     0.3060 c3         1 748       0.097000
     26 CBF          0.6080    -2.9590    -0.6770 c          1 748       0.621700
     27 CBG          7.4550    -0.2830    -0.9490 c          1 748       0.621700
     28 CBH          4.0790    -0.5370    -1.7470 ca         1 748      -0.089300
     29 CBI         -4.6070    -3.4690     0.2890 ca         1 748      -0.157300
     30 CBJ         -1.9280    -2.7410    -0.2850 ca         1 748       0.007000
     31 CBK          1.8020    -2.0950    -1.0540 ca         1 748      -0.149600
     32 CBL          8.5680     0.1360    -0.0310 ca         1 748      -0.198600
     33 CBM         -7.9330     2.7600     0.4550 cp         1 748      -0.216500
     34 CBO         -4.2670    -2.1100     0.1010 ca         1 748       0.348000
     35 NAZ         10.5270    -0.5670     1.2230 nb         1 748      -0.666000
     36 NBA         -9.4530     4.6250     0.9120 nb         1 748      -0.670000
     37 NBE         -5.2660    -1.1340     0.1720 nu         1 748      -0.928900
     38 NBQ          4.5010     2.9070     1.5080 n3         1 748      -0.711600
     39 NBR          6.2670     0.4890    -0.9770 n          1 748      -0.403800
     40 OAD          0.7390    -4.1590    -0.4640 o          1 748      -0.577100
     41 OAE          7.6260    -1.2140    -1.7240 o          1 748      -0.589100
     42 H1          -5.5300     3.8240     1.5220 ha         1 748       0.138000
     43 H2          -3.4050     2.5260     1.8340 h4         1 748       0.022100
     44 H3          -6.4260    -3.3910     1.4900 hc         1 748       0.041033
     45 H4          -6.7120    -3.6740    -0.2390 hc         1 748       0.041033
     46 H5          -6.1110    -4.9790     0.7870 hc         1 748       0.041033
     47 H6           3.8160     4.7240     2.3910 h1         1 748       0.032200
     48 H7           4.9870     4.9380     1.0740 h1         1 748       0.032200
     49 H8           3.3060     4.4830     0.7030 h1         1 748       0.032200
     50 H9           2.5520     2.0410     1.3720 h1         1 748       0.032200
     51 H10          3.7300     1.0670     2.2850 h1         1 748       0.032200
     52 H11          3.0390     2.5230     3.0140 h1         1 748       0.032200
     53 H12         10.0780     2.7810     1.5100 ha         1 748       0.127000
     54 H13        -10.9110     2.4240    -1.2100 ha         1 748       0.128000
     55 H14         11.5660     0.9120     2.2540 h4         1 748       0.022100
     56 H15        -11.3120     4.5880    -0.0220 h4         1 748       0.022100
     57 H16          8.1450     2.2820    -0.0010 ha         1 748       0.122000
     58 H17         -8.7380     1.2420    -0.9080 ha         1 748       0.139000
     59 H18          2.6870     1.1220    -1.8530 ha         1 748       0.124000
     60 H19          5.1820    -2.3920    -1.5600 ha         1 748       0.124000
     61 H20         -3.8480    -5.5000     0.3470 ha         1 748       0.114000
     62 H21         -1.5340    -4.8840    -0.1460 ha         1 748       0.151000
     63 H22          0.7200    -0.2000    -1.2560 ha         1 748       0.126500
     64 H23          3.2170    -3.7470    -0.9610 ha         1 748       0.126500
     65 H24          9.3570    -1.8860     0.1280 h4         1 748       0.031100
     66 H25         -7.5770     4.4830     1.7560 h4         1 748       0.020100
     67 H26         -2.6810    -0.7280    -0.3860 ha         1 748       0.146000
     68 H27          5.8070     3.0670    -0.1530 h1         1 748       0.034200
     69 H28          4.2330     2.3680    -0.5250 h1         1 748       0.034200
     70 H29          6.4210     0.9750     1.1070 h1         1 748       0.063200
     71 H30          4.9060     0.2520     0.6140 h1         1 748       0.063200
     72 H31          5.8100    -0.1550    -2.9590 h1         1 748       0.070200
     73 H32          4.9790     1.2940    -2.4380 h1         1 748       0.070200
     74 H33         -0.5560    -1.3070    -0.7810 hn         1 748       0.155000
     75 H34         -6.2000    -1.5120     0.0310 hn         1 748       0.513000
     76 NBD         -0.6120    -2.2970    -0.5910 ns         1 748      -0.143000
     77 CAA         -6.0410    -3.9010     0.5980 c3         1 748      -0.045800
     78 CAY          5.3050     0.3030    -2.0990 c3         1 748       0.133300
@<TRIPOS>BOND
     1     1     2 ar  
     2     1     5 ar  
     3     1    33 1   
     4     2     3 ar  
     5     2    42 1   
     6     3     4 ar  
     7     3    43 1   
     8     4     6 ar  
     9     5     6 ar  
    10     6    37 1   
    11     7    38 1   
    12     7    47 1   
    13     7    48 1   
    14     7    49 1   
    15     8    38 1   
    16     8    50 1   
    17     8    51 1   
    18     8    52 1   
    19     9    11 ar  
    20     9    13 ar  
    21     9    53 1   
    22    10    12 ar  
    23    10    14 ar  
    24    10    54 1   
    25    11    35 ar  
    26    11    55 1   
    27    12    36 ar  
    28    12    56 1   
    29    13    32 ar  
    30    13    57 1   
    31    14    33 ar  
    32    14    58 1   
    33    15    19 ar  
    34    15    28 ar  
    35    15    59 1   
    36    16    20 ar  
    37    16    28 ar  
    38    16    60 1   
    39    17    18 ar  
    40    17    29 ar  
    41    17    61 1   
    42    18    30 ar  
    43    18    62 1   
    44    19    31 ar  
    45    19    63 1   
    46    20    31 ar  
    47    20    64 1   
    48    21    32 ar  
    49    21    35 ar  
    50    21    65 1   
    51    22    33 ar  
    52    22    36 ar  
    53    22    66 1   
    54    23    30 ar  
    55    23    34 ar  
    56    23    67 1   
    57    24    25 1   
    58    24    38 1   
    59    24    68 1   
    60    24    69 1   
    61    25    39 1   
    62    25    70 1   
    63    25    71 1   
    64    26    31 1   
    65    26    40 2   
    66    26    76 1   
    67    27    32 1   
    68    27    39 1   
    69    27    41 2   
    70    28    78 1   
    71    29    34 ar  
    72    29    77 1   
    73    30    76 1   
    74    34    37 1   
    75    37    75 1   
    76    39    78 1   
    77    44    77 1   
    78    45    77 1   
    79    46    77 1   
    80    72    78 1   
    81    73    78 1   
    82    74    76 1   
@<TRIPOS>SUBSTRUCTURE
     1 748         1 TEMP              0 ****  ****    0 ROOT
