@<TRIPOS>MOLECULE
749
   63    62     1     0     0
SMALL
No Charge or Current Charge


@<TRIPOS>ATOM
      1 CAA          6.8520    -0.8920     0.0160 c3         1 749      -0.040900
      2 CAB          7.6250    -2.9570    -1.2130 c3         1 749      -0.040900
      3 CAC         -6.4940    -4.5380     0.6250 c3         1 749      -0.040900
      4 CAD         -5.8120    -2.2180     1.3480 c3         1 749      -0.040900
      5 CAE          0.9010    -2.0660     0.7490 c3         1 749      -0.015900
      6 CAF         -1.4330    -0.9460    -2.7660 c3         1 749      -0.015900
      7 OAG         -0.7280     3.9520     2.4620 o          1 749      -0.957000
      8 OAH          1.9360     3.9340     0.9540 o          1 749      -0.957000
      9 OAI         -1.9830     1.9100     2.3390 o          1 749      -0.957000
     10 OAJ         -2.3690     3.5780     0.6760 o          1 749      -0.957000
     11 OAK          0.2050     4.6530    -0.6300 o          1 749      -0.957000
     12 OAL          1.8230     2.9810    -1.2290 o          1 749      -0.957000
     13 CAM          5.3090    -2.9080    -0.2450 c2         1 749      -0.161200
     14 CAN         -4.9900    -3.1870    -0.8650 c2         1 749      -0.161200
     15 CAO          1.8580     0.3120     0.6110 c2         1 749      -0.045700
     16 CAP         -1.5880     0.1700    -0.4740 c2         1 749      -0.045700
     17 CAQ          4.1080    -2.3740     0.5180 c3         1 749      -0.078700
     18 CAR         -4.1820    -1.9950    -1.3480 c3         1 749      -0.078700
     19 CAS          0.7700     1.0900     1.3510 c3         1 749      -0.013200
     20 CAT         -0.7090     1.3850    -0.7650 c3         1 749      -0.013200
     21 CAU          3.1210    -1.6130    -0.3930 c3         1 749       0.017800
     22 CAV         -2.7170    -2.0410    -0.8650 c3         1 749       0.017800
     23 CAW          6.4890    -2.2940    -0.4540 c2         1 749      -0.178400
     24 CAX         -5.7010    -3.2920     0.2740 c2         1 749      -0.178400
     25 CAY          1.9390    -1.0150     0.3620 c2         1 749      -0.309900
     26 CAZ         -1.8940    -0.8410    -1.3160 c2         1 749      -0.309900
     27 CBA         -0.0580     2.0950     0.4750 c3         1 749      -0.633000
     28 PBB         -1.3010     2.9520     1.5140 p5         1 749       1.342500
     29 PBC          0.9800     3.4900    -0.1050 p5         1 749       1.342500
     30 HAA          7.6820    -0.9220     0.7320 hc         1 749       0.025033
     31 HAAA         7.1650    -0.2660    -0.8280 hc         1 749       0.025033
     32 HAAB         6.0180    -0.3750     0.5010 hc         1 749       0.025033
     33 HAB          8.5210    -3.0440    -0.5860 hc         1 749       0.025033
     34 HABA         7.3580    -3.9670    -1.5460 hc         1 749       0.025033
     35 HABB         7.8960    -2.3790    -2.1040 hc         1 749       0.025033
     36 HAC         -6.1380    -4.9830     1.5620 hc         1 749       0.025033
     37 HACA        -7.5590    -4.3080     0.7470 hc         1 749       0.025033
     38 HACB        -6.4110    -5.3060    -0.1540 hc         1 749       0.025033
     39 HAD         -6.8470    -1.8710     1.4490 hc         1 749       0.025033
     40 HADA        -5.4960    -2.6070     2.3230 hc         1 749       0.025033
     41 HADB        -5.1910    -1.3410     1.1400 hc         1 749       0.025033
     42 HAE          0.5700    -2.6310    -0.1310 hc         1 749       0.009700
     43 HAEA         1.3110    -2.7850     1.4670 hc         1 749       0.009700
     44 HAEB         0.0000    -1.6430     1.2030 hc         1 749       0.009700
     45 HAF         -0.8720    -0.0670    -3.1000 hc         1 749       0.009700
     46 HAFA        -0.7840    -1.8190    -2.9070 hc         1 749       0.009700
     47 HAFB        -2.2840    -1.0510    -3.4480 hc         1 749       0.009700
     48 HAM          5.1530    -3.9150    -0.6330 ha         1 749       0.114500
     49 HAN         -4.9750    -4.0230    -1.5650 ha         1 749       0.114500
     50 HAO          2.6710     0.9580     0.2780 ha         1 749       0.173500
     51 HAP         -1.9660     0.1340     0.5460 ha         1 749       0.173500
     52 HAQ          3.5890    -3.2090     1.0020 hc         1 749       0.073700
     53 HAQA         4.4230    -1.7120     1.3330 hc         1 749       0.073700
     54 HAR         -4.2060    -1.9640    -2.4440 hc         1 749       0.073700
     55 HARA        -4.6360    -1.0530    -1.0180 hc         1 749       0.073700
     56 HAS          0.0860     0.3970     1.8500 hc         1 749       0.048700
     57 HASA         1.2380     1.6400     2.1770 hc         1 749       0.048700
     58 HAT          0.0940     1.0710    -1.4410 hc         1 749       0.048700
     59 HATA        -1.2940     2.1180    -1.3320 hc         1 749       0.048700
     60 HAU          3.6780    -0.8160    -0.9010 hc         1 749      -0.000300
     61 HAUA         2.7680    -2.2820    -1.1880 hc         1 749      -0.000300
     62 HAV         -2.7240    -2.0950     0.2310 hc         1 749      -0.000300
     63 HAVA        -2.2490    -2.9740    -1.2060 hc         1 749      -0.000300
@<TRIPOS>BOND
     1     1    23 1   
     2     1    30 1   
     3     1    31 1   
     4     1    32 1   
     5     2    23 1   
     6     2    33 1   
     7     2    34 1   
     8     2    35 1   
     9     3    24 1   
    10     3    36 1   
    11     3    37 1   
    12     3    38 1   
    13     4    24 1   
    14     4    39 1   
    15     4    40 1   
    16     4    41 1   
    17     5    25 1   
    18     5    42 1   
    19     5    43 1   
    20     5    44 1   
    21     6    26 1   
    22     6    45 1   
    23     6    46 1   
    24     6    47 1   
    25     7    28 1   
    26     8    29 1   
    27     9    28 1   
    28    10    28 1   
    29    11    29 1   
    30    12    29 1   
    31    13    17 1   
    32    13    23 2   
    33    13    48 1   
    34    14    18 1   
    35    14    24 2   
    36    14    49 1   
    37    15    19 1   
    38    15    25 2   
    39    15    50 1   
    40    16    20 1   
    41    16    26 2   
    42    16    51 1   
    43    17    21 1   
    44    17    52 1   
    45    17    53 1   
    46    18    22 1   
    47    18    54 1   
    48    18    55 1   
    49    19    27 1   
    50    19    56 1   
    51    19    57 1   
    52    20    27 1   
    53    20    58 1   
    54    20    59 1   
    55    21    25 1   
    56    21    60 1   
    57    21    61 1   
    58    22    26 1   
    59    22    62 1   
    60    22    63 1   
    61    27    28 1   
    62    27    29 1   
@<TRIPOS>SUBSTRUCTURE
     1 749         1 TEMP              0 ****  ****    0 ROOT
