@<TRIPOS>MOLECULE
749
   63    62     1     0     0
SMALL
abcg2


@<TRIPOS>ATOM
      1 CAA          6.8160    -1.1840     1.1910 c3         1 749      -0.040900
      2 CAB          7.7130    -3.0790    -0.2080 c3         1 749      -0.040900
      3 CAC         -5.2660    -4.2880     1.2640 c3         1 749      -0.040900
      4 CAD         -3.4630    -2.5520     1.6080 c3         1 749      -0.040900
      5 CAE          0.8340    -2.4390     0.7380 c3         1 749      -0.015900
      6 CAF         -3.2000     0.8140    -3.0950 c3         1 749      -0.015900
      7 OAG         -1.6210     3.1700     1.7490 o          1 749      -0.957000
      8 OAH          1.5320     3.3660     1.0540 o          1 749      -0.957000
      9 OAI         -2.6460     0.9530     1.0820 o          1 749      -0.957000
     10 OAJ         -2.7650     2.9420    -0.5370 o          1 749      -0.957000
     11 OAK          0.1520     4.3490    -0.8880 o          1 749      -0.957000
     12 OAL          1.9940     2.6660    -1.3500 o          1 749      -0.957000
     13 CAM          5.2940    -2.9700     0.2880 c2         1 749      -0.161200
     14 CAN         -5.0390    -2.4150    -0.3400 c2         1 749      -0.161200
     15 CAO          1.5110    -0.0660     0.2390 c2         1 749      -0.045700
     16 CAP         -1.3940    -0.0930    -1.6350 c2         1 749      -0.045700
     17 CAQ          3.9960    -2.4580     0.8270 c3         1 749      -0.078700
     18 CAR         -4.4400    -1.1850    -0.9470 c3         1 749      -0.078700
     19 CAS          0.2840     0.6270     0.7450 c3         1 749      -0.013200
     20 CAT         -0.5490     1.1360    -1.5960 c3         1 749      -0.013200
     21 CAU          3.0940    -1.8860    -0.2790 c3         1 749       0.017800
     22 CAV         -3.3580    -1.5060    -2.0000 c3         1 749       0.017800
     23 CAW          6.5110    -2.4370     0.4250 c2         1 749      -0.178400
     24 CAX         -4.6160    -3.0270     0.7700 c2         1 749      -0.178400
     25 CAY          1.7720    -1.3780     0.2360 c2         1 749      -0.309900
     26 CAZ         -2.5470    -0.2700    -2.2770 c2         1 749      -0.309900
     27 CBA         -0.3070     1.7070    -0.1840 c3         1 749      -0.633000
     28 PBB         -1.9520     2.2410     0.5670 p5         1 749       1.342500
     29 PBC          0.9140     3.1330    -0.3370 p5         1 749       1.342500
     30 HAA          7.5310    -1.3880     1.9920 hc         1 749       0.025033
     31 HAAA         7.2900    -0.4450     0.5390 hc         1 749       0.025033
     32 HAAB         5.9400    -0.7190     1.6370 hc         1 749       0.025033
     33 HAB          8.4600    -3.3410     0.5470 hc         1 749       0.025033
     34 HABA         7.4550    -3.9850    -0.7560 hc         1 749       0.025033
     35 HABB         8.2050    -2.3910    -0.9020 hc         1 749       0.025033
     36 HAC         -4.5440    -5.1070     1.3170 hc         1 749       0.025033
     37 HACA        -5.6570    -4.1580     2.2770 hc         1 749       0.025033
     38 HACB        -6.0900    -4.6070     0.6260 hc         1 749       0.025033
     39 HAD         -3.7590    -2.4800     2.6590 hc         1 749       0.025033
     40 HADA        -2.6490    -3.2830     1.5740 hc         1 749       0.025033
     41 HADB        -3.0570    -1.5870     1.3040 hc         1 749       0.025033
     42 HAE          0.7210    -3.2370    -0.0020 hc         1 749       0.009700
     43 HAEA         1.2060    -2.9160     1.6500 hc         1 749       0.009700
     44 HAEB        -0.1580    -2.0500     0.9600 hc         1 749       0.009700
     45 HAF         -2.6150     1.0810    -3.9790 hc         1 749       0.009700
     46 HAFA        -4.1880     0.5140    -3.4490 hc         1 749       0.009700
     47 HAFB        -3.3040     1.7120    -2.4820 hc         1 749       0.009700
     48 HAM          5.2130    -3.8760    -0.3110 ha         1 749       0.114500
     49 HAN         -5.8640    -2.8720    -0.8830 ha         1 749       0.114500
     50 HAO          2.2630     0.5900    -0.1930 ha         1 749       0.173500
     51 HAP         -1.0370    -0.9230    -1.0310 ha         1 749       0.173500
     52 HAQ          3.4740    -3.2810     1.3260 hc         1 749       0.073700
     53 HAQA         4.1470    -1.6890     1.5860 hc         1 749       0.073700
     54 HAR         -5.2290    -0.5860    -1.4140 hc         1 749       0.073700
     55 HARA        -3.9620    -0.5470    -0.1990 hc         1 749       0.073700
     56 HAS         -0.4970    -0.0950     0.9850 hc         1 749       0.048700
     57 HASA         0.5320     1.1350     1.6820 hc         1 749       0.048700
     58 HAT          0.4290     0.9160    -2.0380 hc         1 749       0.048700
     59 HATA        -1.0000     1.9200    -2.2070 hc         1 749       0.048700
     60 HAU          3.6310    -1.0760    -0.7800 hc         1 749      -0.000300
     61 HAUA         2.9320    -2.6660    -1.0340 hc         1 749      -0.000300
     62 HAV         -2.7090    -2.2840    -1.5900 hc         1 749      -0.000300
     63 HAVA        -3.8180    -1.9170    -2.9060 hc         1 749      -0.000300
@<TRIPOS>BOND
     1     1    23 1   
     2     1    30 1   
     3     1    31 1   
     4     1    32 1   
     5     2    23 1   
     6     2    33 1   
     7     2    34 1   
     8     2    35 1   
     9     3    24 1   
    10     3    36 1   
    11     3    37 1   
    12     3    38 1   
    13     4    24 1   
    14     4    39 1   
    15     4    40 1   
    16     4    41 1   
    17     5    25 1   
    18     5    42 1   
    19     5    43 1   
    20     5    44 1   
    21     6    26 1   
    22     6    45 1   
    23     6    46 1   
    24     6    47 1   
    25     7    28 1   
    26     8    29 1   
    27     9    28 1   
    28    10    28 1   
    29    11    29 1   
    30    12    29 1   
    31    13    17 1   
    32    13    23 2   
    33    13    48 1   
    34    14    18 1   
    35    14    24 2   
    36    14    49 1   
    37    15    19 1   
    38    15    25 2   
    39    15    50 1   
    40    16    20 1   
    41    16    26 2   
    42    16    51 1   
    43    17    21 1   
    44    17    52 1   
    45    17    53 1   
    46    18    22 1   
    47    18    54 1   
    48    18    55 1   
    49    19    27 1   
    50    19    56 1   
    51    19    57 1   
    52    20    27 1   
    53    20    58 1   
    54    20    59 1   
    55    21    25 1   
    56    21    60 1   
    57    21    61 1   
    58    22    26 1   
    59    22    62 1   
    60    22    63 1   
    61    27    28 1   
    62    27    29 1   
@<TRIPOS>SUBSTRUCTURE
     1 749         1 TEMP              0 ****  ****    0 ROOT
