@<TRIPOS>MOLECULE
74A
   87    90     1     0     0
SMALL
bcc


@<TRIPOS>ATOM
      1 C1          -6.6040    -1.6930     0.2050 c          1 74A       0.684700
      2 F1           2.2070     3.2460    -3.7800 f          1 74A      -0.138900
      3 N1          -5.5550    -1.3800     0.9950 n          1 74A      -0.473800
      4 O1          -6.4850    -2.2690    -0.8690 o          1 74A      -0.591100
      5 C2           5.0990    -0.3310    -0.3670 ca         1 74A      -0.146600
      6 F2           0.0680     5.5440    -0.3200 f          1 74A      -0.138900
      7 N2           0.3010    -0.2100    -0.6530 ns         1 74A      -0.571900
      8 O2           6.6450     1.2570     0.4160 o          1 74A      -0.587100
      9 C3           6.3250     0.0750     0.3960 c          1 74A       0.679700
     10 N3          -3.3790     0.4560     1.2680 n7         1 74A      -0.795200
     11 O3           1.3890     1.2600     0.6730 o          1 74A      -0.596100
     12 C4           1.4120     0.3680    -0.1620 c          1 74A       0.685700
     13 N4           7.0300    -0.8880     1.0150 n          1 74A      -0.470800
     14 O4          -1.8960    -1.8890    -1.1700 oh         1 74A      -0.595800
     15 C5          -3.3780    -0.5600     0.2300 c6         1 74A       0.108500
     16 C6          -1.0390     0.2580    -0.3840 c3         1 74A       0.090700
     17 C7           2.7180    -0.1600    -0.6770 ca         1 74A      -0.150600
     18 C8          -1.9400    -0.9550    -0.1130 c3         1 74A       0.137100
     19 C9          -4.2100    -1.7860     0.6190 c6         1 74A       0.059000
     20 C10          3.8620     0.1350     0.0550 ca         1 74A      -0.044000
     21 C11         -0.6300     2.3090    -1.7580 ca         1 74A      -0.025300
     22 C12         -1.5480     1.1450    -1.5330 c3         1 74A      -0.052100
     23 C13          5.2010    -1.0560    -1.5460 ca         1 74A      -0.083000
     24 C14          2.8380    -0.8830    -1.8630 ca         1 74A      -0.093000
     25 C15         -7.9750    -1.3550     0.7020 ca         1 74A      -0.146600
     26 C16          1.1770     4.4350    -2.0530 ca         1 74A      -0.211000
     27 C17          1.2460     3.3080    -2.8480 ca         1 74A       0.169900
     28 C18          0.1690     4.4630    -1.1070 ca         1 74A       0.169900
     29 C19          4.0730    -1.3350    -2.3130 ca         1 74A      -0.088300
     30 C20          0.3670     2.2490    -2.7270 ca         1 74A      -0.181500
     31 C21         -0.7320     3.4330    -0.9420 ca         1 74A      -0.181500
     32 C22         -5.5810    -0.3950     2.0660 c6         1 74A       0.061000
     33 C23         -4.7260     0.8080     1.6780 c6         1 74A       0.129800
     34 C24          8.2430    -0.5220     1.7320 c3         1 74A       0.099000
     35 C25          6.5650    -2.2550     1.1980 c3         1 74A       0.099000
     36 C26         -8.8450    -0.6660    -0.1370 ca         1 74A      -0.094500
     37 C27         -8.4300    -1.8140     1.9360 ca         1 74A      -0.094500
     38 C28          4.1970    -2.1110    -3.5910 c3         1 74A      -0.046800
     39 C29          7.9840    -0.0400     3.1540 c3         1 74A      -0.096900
     40 C30          7.3140    -3.2820     0.3570 c3         1 74A      -0.096900
     41 C31          9.2850     0.2860     3.8730 c3         1 74A      -0.089100
     42 C32          6.8540    -4.6960     0.6790 c3         1 74A      -0.089100
     43 C33         -9.7390    -1.5750     2.3300 ca         1 74A      -0.134500
     44 C34        -10.1460    -0.4070     0.2690 ca         1 74A      -0.134500
     45 C35        -10.5970    -0.8640     1.5010 ca         1 74A      -0.110000
     46 HN2          0.3840    -0.9750    -1.3030 hn         1 74A       0.321500
     47 HN3         -2.8660     0.1150     2.0750 hn         1 74A       0.357800
     48 HO4         -2.3660    -1.5310    -1.9310 ho         1 74A       0.408000
     49 H5          -3.8480    -0.1160    -0.6590 h1         1 74A       0.071700
     50 H6          -1.0100     0.8570     0.5250 h1         1 74A       0.104700
     51 H8          -1.5120    -1.4770     0.7500 h1         1 74A       0.080700
     52 H9          -3.7480    -2.2800     1.4820 h1         1 74A       0.072700
     53 H9A         -4.2640    -2.5090    -0.1890 h1         1 74A       0.072700
     54 H10          3.7840     0.7180     0.9640 ha         1 74A       0.166000
     55 H12         -1.6330     0.5610    -2.4530 hc         1 74A       0.055700
     56 H12A        -2.5450     1.5110    -1.2830 hc         1 74A       0.055700
     57 H13          6.1730    -1.3940    -1.8880 ha         1 74A       0.138000
     58 H14          1.9720    -1.0900    -2.4800 ha         1 74A       0.126000
     59 H16          1.8720     5.2560    -2.1670 ha         1 74A       0.168000
     60 H20          0.4560     1.3910    -3.3790 ha         1 74A       0.151000
     61 H21         -1.4970     3.4940    -0.1780 ha         1 74A       0.151000
     62 H22         -6.5980    -0.0710     2.2690 h1         1 74A       0.060200
     63 H22A        -5.1920    -0.8510     2.9810 h1         1 74A       0.060200
     64 H23         -4.6710     1.4980     2.5210 h1         1 74A       0.064700
     65 H23A        -5.2130     1.3420     0.8560 h1         1 74A       0.064700
     66 H24          8.8920    -1.4010     1.7520 h1         1 74A       0.052700
     67 H24A         8.7770     0.2440     1.1680 h1         1 74A       0.052700
     68 H25          6.6760    -2.5050     2.2580 h1         1 74A       0.052700
     69 H25A         5.4970    -2.3120     0.9890 h1         1 74A       0.052700
     70 H26         -8.5040    -0.3170    -1.1040 ha         1 74A       0.140000
     71 H27         -7.7670    -2.3680     2.5890 ha         1 74A       0.140000
     72 H28          4.4460    -3.1550    -3.3930 hc         1 74A       0.045033
     73 H28A         3.2680    -2.0960    -4.1610 hc         1 74A       0.045033
     74 H28B         4.9870    -1.7070    -4.2250 hc         1 74A       0.045033
     75 H29          7.3420     0.8440     3.1270 hc         1 74A       0.046950
     76 H29A         7.4380    -0.8070     3.7090 hc         1 74A       0.046950
     77 H30          7.1600    -3.0740    -0.7040 hc         1 74A       0.046950
     78 H30A         8.3890    -3.1950     0.5360 hc         1 74A       0.046950
     79 H31          9.1000     0.6210     4.8940 hc         1 74A       0.034533
     80 H31A         9.9370    -0.5880     3.9250 hc         1 74A       0.034533
     81 H31B         9.8340     1.0780     3.3610 hc         1 74A       0.034533
     82 H32          7.0220    -4.9380     1.7300 hc         1 74A       0.034533
     83 H32A         5.7880    -4.8210     0.4770 hc         1 74A       0.034533
     84 H32B         7.3910    -5.4310     0.0800 hc         1 74A       0.034533
     85 H33        -10.0870    -1.9450     3.2850 ha         1 74A       0.135500
     86 H34        -10.8110     0.1480    -0.3810 ha         1 74A       0.135500
     87 H35        -11.6150    -0.6700     1.8110 ha         1 74A       0.134000
@<TRIPOS>BOND
     1     1     3 1   
     2     1     4 2   
     3     1    25 1   
     4     2    27 1   
     5     3    19 1   
     6     3    32 1   
     7     5     9 1   
     8     5    20 ar  
     9     5    23 ar  
    10     6    28 1   
    11     7    12 1   
    12     7    16 1   
    13     7    46 1   
    14     8     9 2   
    15     9    13 1   
    16    10    15 1   
    17    10    33 1   
    18    10    47 1   
    19    11    12 2   
    20    12    17 1   
    21    13    34 1   
    22    13    35 1   
    23    14    18 1   
    24    14    48 1   
    25    15    18 1   
    26    15    19 1   
    27    15    49 1   
    28    16    18 1   
    29    16    22 1   
    30    16    50 1   
    31    17    20 ar  
    32    17    24 ar  
    33    18    51 1   
    34    19    52 1   
    35    19    53 1   
    36    20    54 1   
    37    21    22 1   
    38    21    30 ar  
    39    21    31 ar  
    40    22    55 1   
    41    22    56 1   
    42    23    29 ar  
    43    23    57 1   
    44    24    29 ar  
    45    24    58 1   
    46    25    36 ar  
    47    25    37 ar  
    48    26    27 ar  
    49    26    28 ar  
    50    26    59 1   
    51    27    30 ar  
    52    28    31 ar  
    53    29    38 1   
    54    30    60 1   
    55    31    61 1   
    56    32    33 1   
    57    32    62 1   
    58    32    63 1   
    59    33    64 1   
    60    33    65 1   
    61    34    39 1   
    62    34    66 1   
    63    34    67 1   
    64    35    40 1   
    65    35    68 1   
    66    35    69 1   
    67    36    44 ar  
    68    36    70 1   
    69    37    43 ar  
    70    37    71 1   
    71    38    72 1   
    72    38    73 1   
    73    38    74 1   
    74    39    41 1   
    75    39    75 1   
    76    39    76 1   
    77    40    42 1   
    78    40    77 1   
    79    40    78 1   
    80    41    79 1   
    81    41    80 1   
    82    41    81 1   
    83    42    82 1   
    84    42    83 1   
    85    42    84 1   
    86    43    45 ar  
    87    43    85 1   
    88    44    45 ar  
    89    44    86 1   
    90    45    87 1   
@<TRIPOS>SUBSTRUCTURE
     1 74A         1 TEMP              0 ****  ****    0 ROOT
