@<TRIPOS>MOLECULE
74A
   87    90     1     0     0
SMALL
No Charge or Current Charge


@<TRIPOS>ATOM
      1 C1          -7.1050    -1.3180    -0.1930 c          1 74A       0.617700
      2 F1           2.3340     3.3670    -3.5000 f          1 74A      -0.174000
      3 N1          -6.0790    -1.2540     0.7810 n          1 74A      -0.406800
      4 O1          -6.8390    -1.5470    -1.3670 o          1 74A      -0.591100
      5 C2           5.0060    -0.4610    -0.0200 ca         1 74A      -0.146600
      6 F2           0.2520     5.6520     0.1190 f          1 74A      -0.174000
      7 N2           0.1110    -0.1920    -0.4440 ns         1 74A      -0.504900
      8 O2           6.3430     1.2090     1.0150 o          1 74A      -0.587100
      9 C3           6.2670     0.0420     0.6480 c          1 74A       0.612700
     10 N3          -3.7930     0.4650     1.4430 n7         1 74A      -0.850400
     11 O3           1.1930     1.1270     1.0550 o          1 74A      -0.596100
     12 C4           1.2470     0.2690     0.1850 c          1 74A       0.618700
     13 N4           7.3830    -0.8290     0.7390 n          1 74A      -0.403800
     14 O4          -2.1930    -1.7150    -1.2320 oh         1 74A      -0.658000
     15 C5          -3.7420    -0.4270     0.2470 c6         1 74A       0.108500
     16 C6          -1.2520     0.3280    -0.2370 c3         1 74A       0.090700
     17 C7           2.5600    -0.3420    -0.2600 ca         1 74A      -0.150600
     18 C8          -2.2630    -0.8530    -0.0750 c3         1 74A       0.160300
     19 C9          -4.6780    -1.6560     0.4530 c6         1 74A       0.059000
     20 C10          3.7600     0.0840     0.3520 ca         1 74A      -0.026000
     21 C11         -0.6000     2.4690    -1.4900 ca         1 74A      -0.025300
     22 C12         -1.6180     1.3410    -1.3580 c3         1 74A      -0.052100
     23 C13          5.0500    -1.4160    -1.0590 ca         1 74A      -0.065000
     24 C14          2.6290    -1.3210    -1.2800 ca         1 74A      -0.075000
     25 C15         -8.5480    -1.2070     0.2580 ca         1 74A      -0.146600
     26 C16          1.3130     4.5350    -1.6950 ca         1 74A      -0.193000
     27 C17          1.3630     3.4370    -2.5640 ca         1 74A       0.205000
     28 C18          0.3050     4.5980    -0.7230 ca         1 74A       0.205000
     29 C19          3.8680    -1.8500    -1.6830 ca         1 74A      -0.088300
     30 C20          0.4130     2.4090    -2.4680 ca         1 74A      -0.163500
     31 C21         -0.6490     3.5730    -0.6180 ca         1 74A      -0.163500
     32 C22         -6.1420    -0.3000     1.9290 c6         1 74A       0.061000
     33 C23         -5.1790     0.9060     1.7430 c6         1 74A       0.129800
     34 C24          8.7220    -0.2430     1.0230 c3         1 74A       0.099000
     35 C25          7.1700    -2.2480     1.1480 c3         1 74A       0.099000
     36 C26         -9.5220    -0.7200    -0.6420 ca         1 74A      -0.076500
     37 C27         -8.9650    -1.6360     1.5410 ca         1 74A      -0.076500
     38 C28          3.9290    -2.8900    -2.7920 c3         1 74A      -0.046800
     39 C29          9.1100    -0.2260     2.5200 c3         1 74A      -0.096900
     40 C30          8.2300    -3.2430     0.6240 c3         1 74A      -0.096900
     41 C31         10.4650     0.4610     2.7770 c3         1 74A      -0.089100
     42 C32          7.8910    -4.7080     0.9580 c3         1 74A      -0.089100
     43 C33        -10.3140    -1.5420     1.9220 ca         1 74A      -0.116500
     44 C34        -10.8710    -0.6260    -0.2580 ca         1 74A      -0.116500
     45 C35        -11.2670    -1.0330     1.0260 ca         1 74A      -0.092000
     46 HN2          0.2310    -0.9330    -1.1210 hn         1 74A       0.321500
     47 HN3         -3.4390    -0.0530     2.2580 hn         1 74A       0.413000
     48 HO4         -2.5700    -1.2200    -1.9910 ho         1 74A       0.447000
     49 H5          -4.1230     0.1340    -0.6200 h1         1 74A       0.071700
     50 H6          -1.2620     0.8830     0.7110 h1         1 74A       0.104700
     51 H8          -1.9210    -1.4240     0.8000 h1         1 74A       0.080700
     52 H9          -4.2890    -2.2730     1.2760 h1         1 74A       0.072700
     53 H9A         -4.6650    -2.2890    -0.4450 h1         1 74A       0.072700
     54 H10          3.7260     0.8400     1.1360 ha         1 74A       0.148000
     55 H12         -1.7120     0.8140    -2.3140 hc         1 74A       0.055700
     56 H12A        -2.6040     1.7730    -1.1500 hc         1 74A       0.055700
     57 H13          6.0050    -1.8150    -1.3930 ha         1 74A       0.120000
     58 H14          1.7310    -1.6750    -1.7780 ha         1 74A       0.108000
     59 H16          2.0500     5.3290    -1.7720 ha         1 74A       0.150000
     60 H20          0.4730     1.5620    -3.1460 ha         1 74A       0.133000
     61 H21         -1.4190     3.6350     0.1460 ha         1 74A       0.133000
     62 H22         -7.1570     0.0990     2.0590 h1         1 74A       0.060200
     63 H22A        -5.8810    -0.8360     2.8530 h1         1 74A       0.060200
     64 H23         -5.1870     1.5270     2.6510 h1         1 74A       0.064700
     65 H23A        -5.5490     1.5320     0.9160 h1         1 74A       0.064700
     66 H24          9.4800    -0.8050     0.4630 h1         1 74A       0.052700
     67 H24A         8.7570     0.7830     0.6350 h1         1 74A       0.052700
     68 H25          7.1620    -2.2920     2.2450 h1         1 74A       0.052700
     69 H25A         6.1820    -2.5980     0.8290 h1         1 74A       0.052700
     70 H26         -9.2310    -0.4020    -1.6420 ha         1 74A       0.122000
     71 H27         -8.2490    -2.0610     2.2410 ha         1 74A       0.122000
     72 H28          3.8120    -3.9020    -2.3840 hc         1 74A       0.045033
     73 H28A         3.1360    -2.7330    -3.5320 hc         1 74A       0.045033
     74 H28B         4.8870    -2.8540    -3.3250 hc         1 74A       0.045033
     75 H29          8.3310     0.2970     3.0890 hc         1 74A       0.046950
     76 H29A         9.1580    -1.2510     2.9060 hc         1 74A       0.046950
     77 H30          8.3140    -3.1370    -0.4650 hc         1 74A       0.046950
     78 H30A         9.2120    -3.0060     1.0490 hc         1 74A       0.046950
     79 H31         10.7010     0.4530     3.8480 hc         1 74A       0.034533
     80 H31A        11.2700    -0.0580     2.2440 hc         1 74A       0.034533
     81 H31B        10.4410     1.5040     2.4390 hc         1 74A       0.034533
     82 H32          7.8250    -4.8520     2.0440 hc         1 74A       0.034533
     83 H32A         6.9310    -4.9960     0.5110 hc         1 74A       0.034533
     84 H32B         8.6660    -5.3790     0.5690 hc         1 74A       0.034533
     85 H33        -10.6220    -1.8720     2.9120 ha         1 74A       0.117500
     86 H34        -11.6090    -0.2400    -0.9570 ha         1 74A       0.117500
     87 H35        -12.3120    -0.9620     1.3230 ha         1 74A       0.116000
@<TRIPOS>BOND
     1     1     3 1   
     2     1     4 2   
     3     1    25 1   
     4     2    27 1   
     5     3    19 1   
     6     3    32 1   
     7     5     9 1   
     8     5    20 ar  
     9     5    23 ar  
    10     6    28 1   
    11     7    12 1   
    12     7    16 1   
    13     7    46 1   
    14     8     9 2   
    15     9    13 1   
    16    10    15 1   
    17    10    33 1   
    18    10    47 1   
    19    11    12 2   
    20    12    17 1   
    21    13    34 1   
    22    13    35 1   
    23    14    18 1   
    24    14    48 1   
    25    15    18 1   
    26    15    19 1   
    27    15    49 1   
    28    16    18 1   
    29    16    22 1   
    30    16    50 1   
    31    17    20 ar  
    32    17    24 ar  
    33    18    51 1   
    34    19    52 1   
    35    19    53 1   
    36    20    54 1   
    37    21    22 1   
    38    21    30 ar  
    39    21    31 ar  
    40    22    55 1   
    41    22    56 1   
    42    23    29 ar  
    43    23    57 1   
    44    24    29 ar  
    45    24    58 1   
    46    25    36 ar  
    47    25    37 ar  
    48    26    27 ar  
    49    26    28 ar  
    50    26    59 1   
    51    27    30 ar  
    52    28    31 ar  
    53    29    38 1   
    54    30    60 1   
    55    31    61 1   
    56    32    33 1   
    57    32    62 1   
    58    32    63 1   
    59    33    64 1   
    60    33    65 1   
    61    34    39 1   
    62    34    66 1   
    63    34    67 1   
    64    35    40 1   
    65    35    68 1   
    66    35    69 1   
    67    36    44 ar  
    68    36    70 1   
    69    37    43 ar  
    70    37    71 1   
    71    38    72 1   
    72    38    73 1   
    73    38    74 1   
    74    39    41 1   
    75    39    75 1   
    76    39    76 1   
    77    40    42 1   
    78    40    77 1   
    79    40    78 1   
    80    41    79 1   
    81    41    80 1   
    82    41    81 1   
    83    42    82 1   
    84    42    83 1   
    85    42    84 1   
    86    43    45 ar  
    87    43    85 1   
    88    44    45 ar  
    89    44    86 1   
    90    45    87 1   
@<TRIPOS>SUBSTRUCTURE
     1 74A         1 TEMP              0 ****  ****    0 ROOT
