@<TRIPOS>MOLECULE
74B
   47    49     1     0     0
SMALL
abcg2


@<TRIPOS>ATOM
      1 O1          -3.4150     0.1060    -1.9610 os         1 74B      -0.421000
      2 C2           1.7660     0.8290     1.0830 ca         1 74B      -0.147300
      3 C3           1.7100     2.1890     1.3190 ca         1 74B       0.205000
      4 C4           0.5620     2.9270     1.1110 ca         1 74B      -0.201000
      5 C5          -0.5570     2.2670     0.6460 ca         1 74B       0.203000
      6 C6          -0.5890     0.8990     0.3810 ca         1 74B      -0.137300
      7 C7          -1.8320     0.1560    -0.1180 c6         1 74B       0.204500
      8 C10         -4.3080    -0.2190     0.2620 c6         1 74B      -0.107400
      9 C12         -2.6840    -0.2960     2.2140 c6         1 74B       0.070600
     10 C13         -1.6780    -2.1660     0.4560 c2         1 74B       0.703100
     11 C16          4.9420    -0.8980     0.1700 c3         1 74B       0.087800
     12 C17          5.4850    -1.2830    -1.1830 c3         1 74B       0.302000
     13 C8          -2.2520     0.7310    -1.4850 c6         1 74B       0.175600
     14 C1           0.6080     0.2240     0.6060 ca         1 74B      -0.023000
     15 C9          -4.5290     0.3530    -1.1330 c6         1 74B       0.131300
     16 C11         -3.0110     0.3170     0.8660 c6         1 74B      -0.089700
     17 S1          -2.3480    -2.0750     2.0950 ss         1 74B      -0.402200
     18 N1          -1.5000    -1.2250    -0.3740 n2         1 74B      -0.689900
     19 N2          -1.4030    -3.4570     0.1110 nv         1 74B      -1.012200
     20 F2          -1.6540     3.0220     0.4640 f          1 74B      -0.176000
     21 F3           2.7990     2.8310     1.7650 f          1 74B      -0.173000
     22 C15          3.0210     0.0270     1.2840 c3         1 74B       0.217100
     23 N3           3.7400    -0.1120     0.0250 n7         1 74B      -0.850400
     24 F4           5.7760    -0.2070    -1.9340 f          1 74B      -0.113667
     25 F5           6.6150    -1.9960    -1.0700 f          1 74B      -0.113667
     26 F6           4.6250    -2.0230    -1.8930 f          1 74B      -0.113667
     27 H1           0.5340     3.9910     1.3040 ha         1 74B       0.153000
     28 H2          -5.1420     0.0680     0.9080 hc         1 74B       0.062200
     29 H3          -4.3040    -1.3110     0.2160 hc         1 74B       0.062200
     30 H4          -1.8290     0.2000     2.6730 h1         1 74B       0.078200
     31 H5          -3.5300    -0.2020     2.8960 h1         1 74B       0.078200
     32 H6           4.7030    -1.8210     0.7040 h1         1 74B       0.066200
     33 H7           5.7440    -0.4030     0.7360 h1         1 74B       0.066200
     34 H8          -5.5770    -1.3380    -1.9560 h1         1 74B       0.051700
     35 H9          -6.6070    -0.1560    -1.1200 h1         1 74B       0.051700
     36 H10         -1.4580     0.5370    -2.2080 h1         1 74B       0.064700
     37 H11         -2.4030     1.8140    -1.4280 h1         1 74B       0.064700
     38 H12          0.6470    -0.8370     0.4020 ha         1 74B       0.139000
     39 H13         -4.6950     1.4390    -1.0460 h1         1 74B       0.046700
     40 H14         -3.1630     1.3810     1.0530 hc         1 74B       0.076700
     41 H15         -0.8410    -3.5650    -0.7200 hn         1 74B       0.475500
     42 H16         -1.1750    -4.1100     0.8430 hn         1 74B       0.475500
     43 H17          3.6350     0.4680     2.0800 h1         1 74B       0.047200
     44 H18          2.7460    -0.9730     1.6270 h1         1 74B       0.047200
     45 H19          3.9780     0.8110    -0.3190 hn         1 74B       0.429000
     46 C14         -5.7410    -0.2740    -1.7730 c3         1 74B       0.192600
     47 F1          -6.0220     0.3390    -2.9900 f          1 74B      -0.260000
@<TRIPOS>BOND
     1     1    13 1   
     2     1    15 1   
     3     2     3 ar  
     4     2    14 ar  
     5     2    22 1   
     6     3     4 ar  
     7     3    21 1   
     8     4     5 ar  
     9     4    27 1   
    10     5     6 ar  
    11     5    20 1   
    12     6     7 1   
    13     6    14 ar  
    14     7    13 1   
    15     7    16 1   
    16     7    18 1   
    17     8    15 1   
    18     8    16 1   
    19     8    28 1   
    20     8    29 1   
    21     9    16 1   
    22     9    17 1   
    23     9    30 1   
    24     9    31 1   
    25    10    17 1   
    26    10    18 2   
    27    10    19 1   
    28    11    12 1   
    29    11    23 1   
    30    11    32 1   
    31    11    33 1   
    32    12    24 1   
    33    12    25 1   
    34    12    26 1   
    35    13    36 1   
    36    13    37 1   
    37    14    38 1   
    38    15    39 1   
    39    15    46 1   
    40    16    40 1   
    41    19    41 1   
    42    19    42 1   
    43    22    23 1   
    44    22    43 1   
    45    22    44 1   
    46    23    45 1   
    47    34    46 1   
    48    35    46 1   
    49    46    47 1   
@<TRIPOS>SUBSTRUCTURE
     1 74B         1 TEMP              0 ****  ****    0 ROOT
