@<TRIPOS>MOLECULE
74B
   47    49     1     0     0
SMALL
No Charge or Current Charge


@<TRIPOS>ATOM
      1 O1          -3.5600     0.1870    -2.0020 os         1 74B      -0.421000
      2 C2           1.7960     0.8520     1.0830 ca         1 74B      -0.147300
      3 C3           1.7510     2.2360     1.3170 ca         1 74B       0.205000
      4 C4           0.5770     2.9500     1.0770 ca         1 74B      -0.201000
      5 C5          -0.5670     2.2960     0.6030 ca         1 74B       0.203000
      6 C6          -0.5690     0.8940     0.3530 ca         1 74B      -0.137300
      7 C7          -1.8500     0.1450    -0.1680 c6         1 74B       0.204500
      8 C10         -4.3820    -0.2560     0.2600 c6         1 74B      -0.107400
      9 C12         -2.6900    -0.3380     2.2070 c6         1 74B       0.070600
     10 C13         -1.6840    -2.2260     0.4070 c2         1 74B       0.703100
     11 C16          5.0070    -1.0240     0.1860 c3         1 74B       0.087800
     12 C17          5.7000    -1.2920    -1.1820 c3         1 74B       0.302000
     13 C8          -2.3210     0.7790    -1.5310 c6         1 74B       0.175600
     14 C1           0.6460     0.1950     0.6030 ca         1 74B      -0.023000
     15 C9          -4.6830     0.3950    -1.1150 c6         1 74B       0.131300
     16 C11         -3.0440     0.2950     0.8470 c6         1 74B      -0.089700
     17 S1          -2.3050    -2.1260     2.0630 ss         1 74B      -0.402200
     18 N1          -1.5300    -1.2880    -0.4400 n2         1 74B      -0.689900
     19 N2          -1.3510    -3.4980     0.1260 nv         1 74B      -1.012200
     20 F2          -1.6640     3.0550     0.3950 f          1 74B      -0.176000
     21 F3           2.8400     2.8950     1.7730 f          1 74B      -0.173000
     22 C15          3.0620     0.0500     1.3430 c3         1 74B       0.217100
     23 N3           3.7480    -0.2320     0.0710 n7         1 74B      -0.850400
     24 F4           6.0080    -0.1320    -1.8090 f          1 74B      -0.113667
     25 F5           6.8490    -1.9840    -1.0060 f          1 74B      -0.113667
     26 F6           4.9040    -2.0140    -2.0050 f          1 74B      -0.113667
     27 H1           0.5500     4.0210     1.2580 ha         1 74B       0.153000
     28 H2          -5.2080    -0.0490     0.9550 hc         1 74B       0.062200
     29 H3          -4.3440    -1.3480     0.1450 hc         1 74B       0.062200
     30 H4          -1.8060     0.1620     2.6290 h1         1 74B       0.078200
     31 H5          -3.5150    -0.2130     2.9230 h1         1 74B       0.078200
     32 H6           4.8000    -1.9960     0.6560 h1         1 74B       0.066200
     33 H7           5.7270    -0.5040     0.8330 h1         1 74B       0.066200
     34 H8          -5.7980    -1.2660    -1.9960 h1         1 74B       0.051700
     35 H9          -6.8070    -0.1030    -1.0980 h1         1 74B       0.051700
     36 H10         -1.5450     0.6220    -2.2930 h1         1 74B       0.064700
     37 H11         -2.4740     1.8610    -1.4440 h1         1 74B       0.064700
     38 H12          0.7290    -0.8730     0.4280 ha         1 74B       0.139000
     39 H13         -4.8370     1.4760    -0.9820 h1         1 74B       0.046700
     40 H14         -3.2220     1.3590     1.0410 hc         1 74B       0.076700
     41 H15         -0.6950    -3.5570    -0.6410 hn         1 74B       0.475500
     42 H16         -1.1110    -4.0410     0.9450 hn         1 74B       0.475500
     43 H17          3.7240     0.6000     2.0260 h1         1 74B       0.047200
     44 H18          2.7910    -0.8880     1.8470 h1         1 74B       0.047200
     45 H19          3.9650     0.6700    -0.3740 hn         1 74B       0.429000
     46 C14         -5.9560    -0.2010    -1.7840 c3         1 74B       0.192600
     47 F1          -6.2670     0.4330    -2.9440 f          1 74B      -0.260000
@<TRIPOS>BOND
     1     1    13 1   
     2     1    15 1   
     3     2     3 ar  
     4     2    14 ar  
     5     2    22 1   
     6     3     4 ar  
     7     3    21 1   
     8     4     5 ar  
     9     4    27 1   
    10     5     6 ar  
    11     5    20 1   
    12     6     7 1   
    13     6    14 ar  
    14     7    13 1   
    15     7    16 1   
    16     7    18 1   
    17     8    15 1   
    18     8    16 1   
    19     8    28 1   
    20     8    29 1   
    21     9    16 1   
    22     9    17 1   
    23     9    30 1   
    24     9    31 1   
    25    10    17 1   
    26    10    18 2   
    27    10    19 1   
    28    11    12 1   
    29    11    23 1   
    30    11    32 1   
    31    11    33 1   
    32    12    24 1   
    33    12    25 1   
    34    12    26 1   
    35    13    36 1   
    36    13    37 1   
    37    14    38 1   
    38    15    39 1   
    39    15    46 1   
    40    16    40 1   
    41    19    41 1   
    42    19    42 1   
    43    22    23 1   
    44    22    43 1   
    45    22    44 1   
    46    23    45 1   
    47    34    46 1   
    48    35    46 1   
    49    46    47 1   
@<TRIPOS>SUBSTRUCTURE
     1 74B         1 TEMP              0 ****  ****    0 ROOT
