@<TRIPOS>MOLECULE
74D
   73    76     1     0     0
SMALL
No Charge or Current Charge


@<TRIPOS>ATOM
      1 CBK         -6.7420     4.1100    -0.4760 c3         1 74D      -0.150100
      2 CBH         -6.2400     2.7440    -0.9840 c3         1 74D       0.182000
      3 FBI         -7.0410     2.3350    -1.9970 f          1 74D      -0.120500
      4 FBJ         -5.0010     2.9170    -1.5010 f          1 74D      -0.120500
      5 CBG         -6.2070     1.6670     0.1480 c3         1 74D       0.131800
      6 NBD         -6.1060     0.2260    -0.2620 n3         1 74D      -0.726600
      7 CBE         -6.2820    -0.7210     0.8750 c6         1 74D       0.177300
      8 CBF         -5.0560    -0.7230     1.8270 c6         1 74D      -0.113400
      9 CBC         -4.8890    -0.1380    -1.0440 c6         1 74D       0.177300
     10 CBB         -3.6090    -0.0990    -0.1720 c6         1 74D      -0.113400
     11 CBA         -3.7320    -1.0390     1.0670 c6         1 74D      -0.072700
     12 CAY         -2.4670    -0.9470     1.9980 c3         1 74D       0.090300
     13 CAZ         -2.4960    -1.8480     3.2580 c3         1 74D      -0.105100
     14 NAQ         -1.1580    -1.0470     1.2870 na         1 74D      -0.084700
     15 CAP         -0.1990    -0.0160     1.1470 cc         1 74D       0.035700
     16 CAX         -0.2560     1.3180     1.8620 c3         1 74D      -0.053900
     17 CAR         -0.7770    -2.1680     0.5450 ca         1 74D      -0.047200
     18 CAT         -1.4070    -3.4220     0.4180 ca         1 74D      -0.117000
     19 CAU         -0.8380    -4.3800    -0.4410 ca         1 74D      -0.103000
     20 CAV          0.3320    -4.0790    -1.1660 ca         1 74D      -0.130000
     21 CAW          0.9560    -2.8240    -1.0220 ca         1 74D      -0.080000
     22 CAS          0.3880    -1.8890    -0.1310 ca         1 74D      -0.068800
     23 CAN          0.7540    -0.5270     0.2610 cd         1 74D      -0.233400
     24 CAM          1.9580     0.2570    -0.1650 c          1 74D       0.651300
     25 OAO          2.1160     1.4500     0.0450 o          1 74D      -0.606100
     26 NAL          2.9160    -0.4810    -0.8120 ns         1 74D      -0.496900
     27 CAK          4.1980     0.0330    -1.3020 c3         1 74D       0.120000
     28 CAC          5.3660    -0.2300    -0.3170 c6         1 74D      -0.203500
     29 CAD          5.1320     0.5070     1.0000 c          1 74D       0.718500
     30 OAH          4.7590    -0.0850     2.0010 o          1 74D      -0.515100
     31 NAE          5.4880     1.8420     1.0130 ne         1 74D      -0.660100
     32 CAF          6.6200     2.2290     0.5270 cf         1 74D       0.577600
     33 CAG          7.4140     3.4000     1.0530 c3         1 74D      -0.146400
     34 CAA          7.2140     1.4040    -0.5150 cf         1 74D      -0.489600
     35 CAB          6.6640     0.2400    -0.9320 c2         1 74D       0.173900
     36 OAI          7.1790    -0.5900    -1.8940 os         1 74D      -0.328100
     37 CAJ          8.4090    -0.2640    -2.5640 c3         1 74D       0.143900
     38 H1          -6.7390     4.8490    -1.2870 hc         1 74D       0.060367
     39 H2          -7.7650     4.0290    -0.0900 hc         1 74D       0.060367
     40 H3          -6.0980     4.4840     0.3300 hc         1 74D       0.060367
     41 H4          -5.3850     1.9290     0.8270 h1         1 74D       0.051200
     42 H5          -7.1280     1.7940     0.7320 h1         1 74D       0.051200
     43 H7          -7.1870    -0.4730     1.4490 h1         1 74D       0.059450
     44 H8          -6.4270    -1.7420     0.4900 h1         1 74D       0.059450
     45 H9          -4.9770     0.2450     2.3410 hc         1 74D       0.048200
     46 H10         -5.2310    -1.4720     2.6100 hc         1 74D       0.048200
     47 H11         -5.0010    -1.1560    -1.4470 h1         1 74D       0.059450
     48 H12         -4.7620     0.5170    -1.9180 h1         1 74D       0.059450
     49 H13         -2.7570    -0.4010    -0.7950 hc         1 74D       0.048200
     50 H14         -3.4030     0.9300     0.1500 hc         1 74D       0.048200
     51 H15         -3.8020    -2.0700     0.6990 hc         1 74D       0.060700
     52 H16         -2.5190     0.0730     2.3910 h1         1 74D       0.063700
     53 H17         -2.6230    -2.9050     3.0050 hc         1 74D       0.048700
     54 H18         -1.5610    -1.7420     3.8230 hc         1 74D       0.048700
     55 H19         -3.3140    -1.5590     3.9270 hc         1 74D       0.048700
     56 H20         -0.8200     1.2620     2.7980 hc         1 74D       0.063033
     57 H21          0.7430     1.6680     2.1400 hc         1 74D       0.063033
     58 H22         -0.7220     2.0800     1.2260 hc         1 74D       0.063033
     59 H23         -2.3150    -3.6690     0.9560 ha         1 74D       0.114000
     60 H24         -1.3120    -5.3530    -0.5570 ha         1 74D       0.110000
     61 H25          0.7540    -4.8180    -1.8430 ha         1 74D       0.110000
     62 H26          1.8380    -2.6170    -1.6180 ha         1 74D       0.114000
     63 H27          2.7350    -1.4710    -0.8800 hn         1 74D       0.320500
     64 H28          4.4210    -0.4620    -2.2580 h1         1 74D       0.068200
     65 H29          4.1190     1.1110    -1.5010 h1         1 74D       0.068200
     66 H30          5.3970    -1.3070    -0.1110 hc         1 74D       0.100700
     67 H31          6.8730     4.3380     0.8850 hc         1 74D       0.059367
     68 H32          7.5840     3.3000     2.1310 hc         1 74D       0.059367
     69 H33          8.3930     3.4880     0.5700 hc         1 74D       0.059367
     70 H34          8.1480     1.7650    -0.9370 ha         1 74D       0.198000
     71 H35          8.3220     0.6910    -3.0980 h1         1 74D       0.050367
     72 H36          9.2370    -0.1920    -1.8470 h1         1 74D       0.050367
     73 H37          8.6610    -1.0400    -3.2960 h1         1 74D       0.050367
@<TRIPOS>BOND
     1     1     2 1   
     2     1    38 1   
     3     1    39 1   
     4     1    40 1   
     5     2     3 1   
     6     2     4 1   
     7     2     5 1   
     8     5     6 1   
     9     5    41 1   
    10     5    42 1   
    11     6     7 1   
    12     6     9 1   
    13     7     8 1   
    14     7    43 1   
    15     7    44 1   
    16     8    11 1   
    17     8    45 1   
    18     8    46 1   
    19     9    10 1   
    20     9    47 1   
    21     9    48 1   
    22    10    11 1   
    23    10    49 1   
    24    10    50 1   
    25    11    12 1   
    26    11    51 1   
    27    12    13 1   
    28    12    14 1   
    29    12    52 1   
    30    13    53 1   
    31    13    54 1   
    32    13    55 1   
    33    14    15 1   
    34    14    17 1   
    35    15    16 1   
    36    15    23 2   
    37    16    56 1   
    38    16    57 1   
    39    16    58 1   
    40    17    18 ar  
    41    17    22 ar  
    42    18    19 ar  
    43    18    59 1   
    44    19    20 ar  
    45    19    60 1   
    46    20    21 ar  
    47    20    61 1   
    48    21    22 ar  
    49    21    62 1   
    50    22    23 1   
    51    23    24 1   
    52    24    25 2   
    53    24    26 1   
    54    26    27 1   
    55    26    63 1   
    56    27    28 1   
    57    27    64 1   
    58    27    65 1   
    59    28    29 1   
    60    28    35 1   
    61    28    66 1   
    62    29    30 2   
    63    29    31 1   
    64    31    32 2   
    65    32    33 1   
    66    32    34 1   
    67    33    67 1   
    68    33    68 1   
    69    33    69 1   
    70    34    35 2   
    71    34    70 1   
    72    35    36 1   
    73    36    37 1   
    74    37    71 1   
    75    37    72 1   
    76    37    73 1   
@<TRIPOS>SUBSTRUCTURE
     1 74D         1 TEMP              0 ****  ****    0 ROOT
