@<TRIPOS>MOLECULE
74D
   73    76     1     0     0
SMALL
bcc


@<TRIPOS>ATOM
      1 CBK         -6.8800     4.2900    -0.1580 c3         1 74D      -0.150100
      2 CBH         -6.8400     2.8220    -0.4880 c3         1 74D       0.424600
      3 FBI         -8.0350     2.2420    -0.1410 f          1 74D      -0.241800
      4 FBJ         -6.7530     2.6610    -1.8490 f          1 74D      -0.241800
      5 CBG         -5.7080     2.0600     0.1750 c3         1 74D       0.131800
      6 NBD         -5.7320     0.6570    -0.1740 n3         1 74D      -0.726600
      7 CBE         -5.9310    -0.2420     0.9470 c6         1 74D       0.177300
      8 CBF         -4.6820    -0.4300     1.8060 c6         1 74D      -0.113400
      9 CBC         -4.6240     0.2200    -1.0030 c6         1 74D       0.177300
     10 CBB         -3.3160     0.0430    -0.2330 c6         1 74D      -0.113400
     11 CBA         -3.4990    -0.9010     0.9570 c6         1 74D      -0.072700
     12 CAY         -2.2210    -0.9930     1.8060 c3         1 74D       0.061000
     13 CAZ         -2.2940    -1.9860     2.9610 c3         1 74D      -0.105100
     14 NAQ         -1.0430    -1.2420     0.9770 na         1 74D      -0.055400
     15 CAP         -0.0210    -0.3550     0.7840 cc         1 74D       0.035700
     16 CAX          0.0260     0.9550     1.4880 c3         1 74D      -0.053900
     17 CAR         -0.8080    -2.3750     0.2310 ca         1 74D      -0.047200
     18 CAT         -1.5700    -3.5330     0.0740 ca         1 74D      -0.135000
     19 CAU         -1.0920    -4.5170    -0.7710 ca         1 74D      -0.121000
     20 CAV          0.1150    -4.3540    -1.4620 ca         1 74D      -0.148000
     21 CAW          0.8680    -3.2060    -1.3120 ca         1 74D      -0.098000
     22 CAS          0.4160    -2.2010    -0.4480 ca         1 74D      -0.068800
     23 CAN          0.9020    -0.9020    -0.0830 cd         1 74D      -0.233400
     24 CAM          2.1300    -0.2340    -0.5300 c          1 74D       0.718300
     25 OAO          2.2120     0.9770    -0.6920 o          1 74D      -0.606100
     26 NAL          3.1780    -1.0590    -0.7820 ns         1 74D      -0.563900
     27 CAK          4.4730    -0.5600    -1.1290 c3         1 74D       0.120000
     28 CAC          5.4040    -0.3390     0.1080 c6         1 74D      -0.203500
     29 CAD          4.7110     0.5340     1.1350 c          1 74D       0.718500
     30 OAH          3.9470     0.0320     1.9340 o          1 74D      -0.515100
     31 NAE          4.9230     1.8950     1.1300 ne         1 74D      -0.660100
     32 CAF          5.9590     2.3550     0.5000 cf         1 74D       0.577600
     33 CAG          6.2000     3.8280     0.5320 c3         1 74D      -0.146400
     34 CAA          6.9270     1.5610    -0.2140 cf         1 74D      -0.439600
     35 CAB          6.6840     0.2440    -0.3810 c2         1 74D       0.173900
     36 OAI          7.4450    -0.6250    -1.0180 os         1 74D      -0.304900
     37 CAJ          8.6620    -0.1660    -1.5980 c3         1 74D       0.120700
     38 H1          -7.7120     4.7820    -0.6620 hc         1 74D       0.060367
     39 H2          -6.9940     4.4350     0.9150 hc         1 74D       0.060367
     40 H3          -5.9550     4.7760    -0.4670 hc         1 74D       0.060367
     41 H4          -4.7670     2.5410    -0.1130 h1         1 74D       0.051200
     42 H5          -5.7920     2.2100     1.2560 h1         1 74D       0.051200
     43 H7          -6.7610     0.1210     1.5550 h1         1 74D       0.059450
     44 H8          -6.2410    -1.2160     0.5510 h1         1 74D       0.059450
     45 H9          -4.4210     0.5150     2.2970 hc         1 74D       0.048200
     46 H10         -4.9020    -1.1460     2.6010 hc         1 74D       0.048200
     47 H11         -4.8990    -0.7360    -1.4630 h1         1 74D       0.059450
     48 H12         -4.4890     0.9280    -1.8220 h1         1 74D       0.059450
     49 H13         -2.5540    -0.3370    -0.9180 hc         1 74D       0.048200
     50 H14         -2.9620     1.0170     0.1260 hc         1 74D       0.048200
     51 H15         -3.7490    -1.8960     0.5670 hc         1 74D       0.060700
     52 H16         -2.0710    -0.0030     2.2420 h1         1 74D       0.063700
     53 H17         -2.5190    -3.0000     2.6300 hc         1 74D       0.048700
     54 H18         -1.3480    -2.0070     3.5020 hc         1 74D       0.048700
     55 H19         -3.0670    -1.6910     3.6690 hc         1 74D       0.048700
     56 H20         -0.1390     0.8390     2.5590 hc         1 74D       0.063033
     57 H21          0.9930     1.4240     1.3460 hc         1 74D       0.063033
     58 H22         -0.7360     1.6390     1.1090 hc         1 74D       0.063033
     59 H23         -2.5100    -3.6790     0.5860 ha         1 74D       0.132000
     60 H24         -1.6670    -5.4240    -0.9030 ha         1 74D       0.128000
     61 H25          0.4600    -5.1370    -2.1250 ha         1 74D       0.128000
     62 H26          1.7870    -3.0920    -1.8720 ha         1 74D       0.132000
     63 H27          3.1260    -2.0090    -0.4530 hn         1 74D       0.320500
     64 H28          4.9620    -1.2740    -1.7910 h1         1 74D       0.068200
     65 H29          4.3620     0.3770    -1.6720 h1         1 74D       0.068200
     66 H30          5.5900    -1.3180     0.5600 hc         1 74D       0.100700
     67 H31          5.3780     4.3550     1.0080 hc         1 74D       0.059367
     68 H32          7.1220     4.0400     1.0780 hc         1 74D       0.059367
     69 H33          6.3420     4.2130    -0.4790 hc         1 74D       0.059367
     70 H34          7.8040     2.0570    -0.6070 ha         1 74D       0.148000
     71 H35          8.4720     0.5870    -2.3640 h1         1 74D       0.050367
     72 H36          9.3240     0.2510    -0.8380 h1         1 74D       0.050367
     73 H37          9.1320    -1.0330    -2.0510 h1         1 74D       0.050367
@<TRIPOS>BOND
     1     1     2 1   
     2     1    38 1   
     3     1    39 1   
     4     1    40 1   
     5     2     3 1   
     6     2     4 1   
     7     2     5 1   
     8     5     6 1   
     9     5    41 1   
    10     5    42 1   
    11     6     7 1   
    12     6     9 1   
    13     7     8 1   
    14     7    43 1   
    15     7    44 1   
    16     8    11 1   
    17     8    45 1   
    18     8    46 1   
    19     9    10 1   
    20     9    47 1   
    21     9    48 1   
    22    10    11 1   
    23    10    49 1   
    24    10    50 1   
    25    11    12 1   
    26    11    51 1   
    27    12    13 1   
    28    12    14 1   
    29    12    52 1   
    30    13    53 1   
    31    13    54 1   
    32    13    55 1   
    33    14    15 1   
    34    14    17 1   
    35    15    16 1   
    36    15    23 2   
    37    16    56 1   
    38    16    57 1   
    39    16    58 1   
    40    17    18 ar  
    41    17    22 ar  
    42    18    19 ar  
    43    18    59 1   
    44    19    20 ar  
    45    19    60 1   
    46    20    21 ar  
    47    20    61 1   
    48    21    22 ar  
    49    21    62 1   
    50    22    23 1   
    51    23    24 1   
    52    24    25 2   
    53    24    26 1   
    54    26    27 1   
    55    26    63 1   
    56    27    28 1   
    57    27    64 1   
    58    27    65 1   
    59    28    29 1   
    60    28    35 1   
    61    28    66 1   
    62    29    30 2   
    63    29    31 1   
    64    31    32 2   
    65    32    33 1   
    66    32    34 1   
    67    33    67 1   
    68    33    68 1   
    69    33    69 1   
    70    34    35 2   
    71    34    70 1   
    72    35    36 1   
    73    36    37 1   
    74    37    71 1   
    75    37    72 1   
    76    37    73 1   
@<TRIPOS>SUBSTRUCTURE
     1 74D         1 TEMP              0 ****  ****    0 ROOT
