@<TRIPOS>MOLECULE
74E
   61    64     1     0     0
SMALL
abcg2


@<TRIPOS>ATOM
      1 C4           4.8460     1.0650     1.2820 c6         1 74E      -0.174400
      2 C5           2.6300     0.2310    -0.2280 cc         1 74E      -0.091300
      3 C6           3.3860     1.2740    -0.7330 cd         1 74E      -0.257600
      4 C7           2.7530     1.7460    -1.9280 cd         1 74E      -0.071300
      5 C8           1.6380     0.9800    -2.0850 cc         1 74E      -0.204000
      6 C13          0.5330    -0.8910    -0.9060 ca         1 74E       0.062800
      7 C14          0.8160    -2.2500    -0.9620 ca         1 74E      -0.186000
      8 C15         -0.2380    -3.1330    -0.8260 ca         1 74E      -0.029000
      9 C1           4.5810     1.7240    -0.0570 c          1 74E       0.616700
     10 C2           2.9010    -0.5020     1.0350 c6         1 74E      -0.012100
     11 C3           4.3930    -0.3990     1.3960 c6         1 74E      -0.032000
     12 N9           1.5740     0.0570    -1.0550 na         1 74E       0.116200
     13 O12          5.3110     2.6020    -0.4920 o          1 74E      -0.544100
     14 C16         -1.5550    -2.7130    -0.6430 ca         1 74E      -0.249600
     15 C17         -1.8330    -1.3200    -0.5590 ca         1 74E       0.404000
     16 C18         -0.7520    -0.4300    -0.7070 ca         1 74E      -0.216000
     17 C19         -2.6420    -3.7200    -0.4990 c          1 74E       0.632700
     18 N20         -2.4280    -4.9230    -1.0520 nt         1 74E      -0.597000
     19 N21         -3.0940    -0.8530    -0.3790 nu         1 74E      -0.951200
     20 C22         -3.4210     0.5220    -0.0670 c6         1 74E       0.226500
     21 C23         -4.9120     0.7500    -0.2990 c6         1 74E      -0.092900
     22 C24         -5.3130     2.1850     0.0260 c6         1 74E      -0.090900
     23 C25         -4.9340     2.5570     1.4510 c6         1 74E       0.169300
     24 C26         -3.4410     2.3430     1.6780 c6         1 74E      -0.090900
     25 C27         -3.0420     0.9060     1.3660 c6         1 74E      -0.092900
     26 O28         -5.3210     3.8980     1.6710 oh         1 74E      -0.657000
     27 C29          3.2060     2.8450    -2.8290 c3         1 74E      -0.017800
     28 O30         -3.6870    -3.4730     0.1050 o          1 74E      -0.642100
     29 H1           5.9090     1.1530     1.5180 hc         1 74E       0.066200
     30 H2           4.3110     1.6630     2.0320 hc         1 74E       0.066200
     31 H3           0.8840     0.9900    -2.8560 h4         1 74E       0.152000
     32 H4           4.0200    -0.2560     3.5360 hc         1 74E       0.038033
     33 H5           4.2730    -1.9040     2.9570 hc         1 74E       0.038033
     34 H6           5.6440    -0.8080     3.1230 hc         1 74E       0.038033
     35 H7           6.2900    -1.1770     0.6870 hc         1 74E       0.038033
     36 H8           4.9650    -2.3360     0.6020 hc         1 74E       0.038033
     37 H9           5.0810    -1.0430    -0.5870 hc         1 74E       0.038033
     38 H10          1.8240    -2.6060    -1.1210 ha         1 74E       0.133000
     39 H11         -0.0120    -4.1910    -0.8480 ha         1 74E       0.111000
     40 H12          2.2990    -0.0610     1.8400 hc         1 74E       0.058200
     41 H13          2.6020    -1.5500     0.9710 hc         1 74E       0.058200
     42 H14         -0.9080     0.6370    -0.6450 ha         1 74E       0.134000
     43 H15         -1.6620    -5.1130    -1.6730 hn         1 74E       0.316500
     44 H16         -3.1350    -5.6350    -0.9680 hn         1 74E       0.316500
     45 H17         -3.7570    -1.5510    -0.0710 hn         1 74E       0.520000
     46 H18         -2.8830     1.1750    -0.7630 h1         1 74E       0.060700
     47 H19         -5.1650     0.5140    -1.3350 hc         1 74E       0.052200
     48 H20         -5.4840     0.0580     0.3310 hc         1 74E       0.052200
     49 H21         -4.8180     2.8720    -0.6690 hc         1 74E       0.053200
     50 H22         -6.3890     2.3070    -0.1180 hc         1 74E       0.053200
     51 H23         -5.4780     1.8860     2.1340 h1         1 74E       0.028700
     52 H24         -2.8810     3.0340     1.0380 hc         1 74E       0.053200
     53 H25         -3.1790     2.5860     2.7120 hc         1 74E       0.053200
     54 H26         -3.5460     0.2190     2.0550 hc         1 74E       0.052200
     55 H27         -1.9690     0.7740     1.5240 hc         1 74E       0.052200
     56 H28         -5.1170     4.1230     2.5830 ho         1 74E       0.443000
     57 H29          4.1870     2.6350    -3.2560 hc         1 74E       0.044367
     58 H30          2.5050     2.9840    -3.6510 hc         1 74E       0.044367
     59 H31          3.2900     3.7920    -2.2960 hc         1 74E       0.044367
     60 C10          4.5920    -0.8670     2.8350 c3         1 74E      -0.087100
     61 C11          5.2260    -1.2840     0.4670 c3         1 74E      -0.087100
@<TRIPOS>BOND
     1     1     9 1   
     2     1    11 1   
     3     1    29 1   
     4     1    30 1   
     5     2     3 2   
     6     2    10 1   
     7     2    12 1   
     8     3     4 1   
     9     3     9 1   
    10     4     5 2   
    11     4    27 1   
    12     5    12 1   
    13     5    31 1   
    14     6     7 ar  
    15     6    12 1   
    16     6    16 ar  
    17     7     8 ar  
    18     7    38 1   
    19     8    14 ar  
    20     8    39 1   
    21     9    13 2   
    22    10    11 1   
    23    10    40 1   
    24    10    41 1   
    25    11    60 1   
    26    11    61 1   
    27    14    15 ar  
    28    14    17 1   
    29    15    16 ar  
    30    15    19 1   
    31    16    42 1   
    32    17    18 1   
    33    17    28 2   
    34    18    43 1   
    35    18    44 1   
    36    19    20 1   
    37    19    45 1   
    38    20    21 1   
    39    20    25 1   
    40    20    46 1   
    41    21    22 1   
    42    21    47 1   
    43    21    48 1   
    44    22    23 1   
    45    22    49 1   
    46    22    50 1   
    47    23    24 1   
    48    23    26 1   
    49    23    51 1   
    50    24    25 1   
    51    24    52 1   
    52    24    53 1   
    53    25    54 1   
    54    25    55 1   
    55    26    56 1   
    56    27    57 1   
    57    27    58 1   
    58    27    59 1   
    59    32    60 1   
    60    33    60 1   
    61    34    60 1   
    62    35    61 1   
    63    36    61 1   
    64    37    61 1   
@<TRIPOS>SUBSTRUCTURE
     1 74E         1 TEMP              0 ****  ****    0 ROOT
