@<TRIPOS>MOLECULE
74E
   61    64     1     0     0
SMALL
No Charge or Current Charge


@<TRIPOS>ATOM
      1 C4           4.9060     1.1930     1.2040 c6         1 74E      -0.174400
      2 C5           2.6830     0.3200    -0.3810 cc         1 74E      -0.091300
      3 C6           3.5380     1.2240    -0.9580 cd         1 74E      -0.257600
      4 C7           3.0620     1.5520    -2.2630 cd         1 74E      -0.071300
      5 C8           1.8960     0.8600    -2.4840 cc         1 74E      -0.204000
      6 C13          0.6030    -0.7390    -1.1580 ca         1 74E       0.062800
      7 C14          0.7880    -2.1200    -0.9980 ca         1 74E      -0.186000
      8 C15         -0.3150    -2.9710    -0.8320 ca         1 74E      -0.029000
      9 C1           4.7540     1.7010    -0.2430 c          1 74E       0.616700
     10 C2           2.8370    -0.2810     0.9970 c6         1 74E      -0.012100
     11 C3           4.3300    -0.2370     1.4490 c6         1 74E      -0.032000
     12 N9           1.6960     0.1100    -1.3330 na         1 74E       0.116200
     13 O12          5.5970     2.4300    -0.7520 o          1 74E      -0.544100
     14 C16         -1.6360    -2.4560    -0.8200 ca         1 74E      -0.249600
     15 C17         -1.8110    -1.0600    -0.9800 ca         1 74E       0.404000
     16 C18         -0.7000    -0.2210    -1.1590 ca         1 74E      -0.216000
     17 C19         -2.8150    -3.3880    -0.6430 c          1 74E       0.632700
     18 N20         -2.5670    -4.6860    -0.3790 nt         1 74E      -0.597000
     19 N21         -3.0800    -0.4910    -0.9640 nu         1 74E      -0.951200
     20 C22         -3.4260     0.7190    -0.2080 c6         1 74E       0.226500
     21 C23         -4.9170     1.0580    -0.4590 c6         1 74E      -0.092900
     22 C24         -5.3620     2.2890     0.3720 c6         1 74E      -0.090900
     23 C25         -5.1010     2.0730     1.8850 c6         1 74E       0.169300
     24 C26         -3.6110     1.7300     2.1390 c6         1 74E      -0.090900
     25 C27         -3.1640     0.5000     1.3070 c6         1 74E      -0.092900
     26 O28         -5.4640     3.2490     2.6110 oh         1 74E      -0.657000
     27 C29          3.7130     2.5040    -3.2320 c3         1 74E      -0.017800
     28 O30         -3.9810    -3.0370    -0.7380 o          1 74E      -0.642100
     29 H1           5.9490     1.3030     1.5290 hc         1 74E       0.066200
     30 H2           4.3050     1.8820     1.8120 hc         1 74E       0.066200
     31 H3           1.2260     0.8310    -3.3340 h4         1 74E       0.152000
     32 H4           3.8730     0.1160     3.5800 hc         1 74E       0.038033
     33 H5           4.0330    -1.5950     3.1650 hc         1 74E       0.038033
     34 H6           5.4750    -0.5790     3.3070 hc         1 74E       0.038033
     35 H7           6.2230    -1.2740     0.9720 hc         1 74E       0.038033
     36 H8           4.7970    -2.3130     0.8470 hc         1 74E       0.038033
     37 H9           5.1390    -1.1270    -0.4150 hc         1 74E       0.038033
     38 H10          1.7920    -2.5390    -1.0130 ha         1 74E       0.133000
     39 H11         -0.1200    -4.0350    -0.7210 ha         1 74E       0.111000
     40 H12          2.2160     0.2830     1.7070 hc         1 74E       0.058200
     41 H13          2.4670    -1.3140     1.0320 hc         1 74E       0.058200
     42 H14         -0.8430     0.8450    -1.2980 ha         1 74E       0.134000
     43 H15         -1.6200    -5.0160    -0.2850 hn         1 74E       0.316500
     44 H16         -3.3440    -5.3180    -0.2630 hn         1 74E       0.316500
     45 H17         -3.7930    -1.2320    -0.9490 hn         1 74E       0.520000
     46 H18         -2.8210     1.5730    -0.5510 h1         1 74E       0.060700
     47 H19         -5.0800     1.2570    -1.5270 hc         1 74E       0.052200
     48 H20         -5.5480     0.1960    -0.2000 hc         1 74E       0.052200
     49 H21         -4.8240     3.1820     0.0250 hc         1 74E       0.053200
     50 H22         -6.4300     2.4830     0.2030 hc         1 74E       0.053200
     51 H23         -5.7160     1.2250     2.2230 h1         1 74E       0.028700
     52 H24         -2.9800     2.5930     1.8850 hc         1 74E       0.053200
     53 H25         -3.4490     1.5280     3.2070 hc         1 74E       0.053200
     54 H26         -3.7020    -0.3930     1.6550 hc         1 74E       0.052200
     55 H27         -2.0970     0.3110     1.4830 hc         1 74E       0.052200
     56 H28         -5.3630     3.0340     3.5640 ho         1 74E       0.443000
     57 H29          4.7140     2.1560    -3.5120 hc         1 74E       0.044367
     58 H30          3.1240     2.5990    -4.1520 hc         1 74E       0.044367
     59 H31          3.8120     3.5040    -2.7950 hc         1 74E       0.044367
     60 C10          4.4340    -0.5950     2.9610 c3         1 74E      -0.087100
     61 C11          5.1700    -1.2960     0.6680 c3         1 74E      -0.087100
@<TRIPOS>BOND
     1     1     9 1   
     2     1    11 1   
     3     1    29 1   
     4     1    30 1   
     5     2     3 2   
     6     2    10 1   
     7     2    12 1   
     8     3     4 1   
     9     3     9 1   
    10     4     5 2   
    11     4    27 1   
    12     5    12 1   
    13     5    31 1   
    14     6     7 ar  
    15     6    12 1   
    16     6    16 ar  
    17     7     8 ar  
    18     7    38 1   
    19     8    14 ar  
    20     8    39 1   
    21     9    13 2   
    22    10    11 1   
    23    10    40 1   
    24    10    41 1   
    25    11    60 1   
    26    11    61 1   
    27    14    15 ar  
    28    14    17 1   
    29    15    16 ar  
    30    15    19 1   
    31    16    42 1   
    32    17    18 1   
    33    17    28 2   
    34    18    43 1   
    35    18    44 1   
    36    19    20 1   
    37    19    45 1   
    38    20    21 1   
    39    20    25 1   
    40    20    46 1   
    41    21    22 1   
    42    21    47 1   
    43    21    48 1   
    44    22    23 1   
    45    22    49 1   
    46    22    50 1   
    47    23    24 1   
    48    23    26 1   
    49    23    51 1   
    50    24    25 1   
    51    24    52 1   
    52    24    53 1   
    53    25    54 1   
    54    25    55 1   
    55    26    56 1   
    56    27    57 1   
    57    27    58 1   
    58    27    59 1   
    59    32    60 1   
    60    33    60 1   
    61    34    60 1   
    62    35    61 1   
    63    36    61 1   
    64    37    61 1   
@<TRIPOS>SUBSTRUCTURE
     1 74E         1 TEMP              0 ****  ****    0 ROOT
