@<TRIPOS>MOLECULE
74F
   52    56     1     0     0
SMALL
abcg2


@<TRIPOS>ATOM
      1 C1         -42.7350    16.9510   -32.7950 ca         1 74F      -0.133000
      2 C2         -44.0540    17.4140   -32.6000 ca         1 74F      -0.086000
      3 C3         -42.3510    15.6920   -32.3810 ca         1 74F      -0.039000
      4 C7         -44.6370    15.3650   -31.5740 ca         1 74F      -0.034200
      5 C8         -48.6890    15.1650   -30.5690 ca         1 74F       0.217000
      6 C9         -46.6080    14.2160   -30.5080 ca         1 74F       0.341500
      7 C10        -47.0720    13.1840   -29.6330 ca         1 74F       0.612900
      8 C11        -49.5460    16.2380   -31.0750 cc         1 74F       0.499000
      9 C12        -50.2060    17.9400   -32.1430 cd         1 74F       0.422800
     10 C13        -49.4810    20.5730   -31.3080 c6         1 74F       0.124300
     11 C14        -49.2830    21.2790   -33.5800 c6         1 74F       0.124300
     12 C15        -48.4020    21.5670   -30.9240 c6         1 74F       0.153100
     13 C16        -48.2110    22.2640   -33.1480 c6         1 74F       0.153100
     14 C19        -50.3060    19.1210   -33.0640 c3         1 74F       0.161200
     15 N23        -49.1380    17.1720   -31.9760 nc         1 74F      -0.650000
     16 N25        -44.3740    13.2950   -30.7640 nc         1 74F      -0.198400
     17 N26        -45.2640    14.3170   -30.9360 na         1 74F       0.052100
     18 N29        -46.2970    12.2010   -29.1380 nv         1 74F      -1.064900
     19 C4         -45.0270    16.6420   -31.9920 ca         1 74F      -0.081000
     20 C5         -49.1510    14.1720   -29.7120 ca         1 74F       0.379900
     21 C6         -43.3240    14.9000   -31.7630 ca         1 74F       0.000400
     22 C17        -50.1590    18.6380   -34.5110 c3         1 74F      -0.087100
     23 N20        -48.3580    13.2070   -29.2600 nb         1 74F      -0.739000
     24 N21        -43.2310    13.6290   -31.2460 nd         1 74F      -0.200400
     25 N22        -47.4060    15.1540   -30.9500 nb         1 74F      -0.608000
     26 N24        -50.8080    16.3900   -30.6850 nd         1 74F      -0.539800
     27 N27        -51.2140    17.4830   -31.3760 na         1 74F      -0.068700
     28 N28        -49.2910    20.1170   -32.6890 n3         1 74F      -0.699600
     29 O30        -48.3950    22.6900   -31.8010 os         1 74F      -0.458000
     30 H1         -42.0170    17.6000   -33.2790 ha         1 74F       0.117000
     31 H2         -44.3140    18.4090   -32.9390 ha         1 74F       0.119000
     32 H3         -41.3430    15.3240   -32.5210 ha         1 74F       0.132000
     33 H4         -50.4720    21.0400   -31.1810 h1         1 74F       0.042950
     34 H5         -49.4260    19.7190   -30.6310 h1         1 74F       0.042950
     35 H6         -50.2650    21.7830   -33.5830 h1         1 74F       0.042950
     36 H7         -49.0640    20.9650   -34.5990 h1         1 74F       0.042950
     37 H8         -47.4210    21.0750   -30.9480 h1         1 74F       0.055450
     38 H9         -48.5810    21.9510   -29.9200 h1         1 74F       0.055450
     39 H10        -47.2220    21.8000   -33.2530 h1         1 74F       0.055450
     40 H11        -48.2500    23.1580   -33.7700 h1         1 74F       0.055450
     41 H12        -51.3120    19.5530   -32.9490 h1         1 74F       0.023700
     42 H13        -46.7380    11.4890   -28.5780 hn         1 74F       0.518000
     43 H14        -45.3660    12.0630   -29.4980 hn         1 74F       0.518000
     44 H15        -46.0340    16.9980   -31.8530 ha         1 74F       0.165000
     45 H16        -50.1830    14.1550   -29.3840 h4         1 74F       0.046100
     46 H17        -50.8470    17.8100   -34.6860 hc         1 74F       0.051367
     47 H18        -50.4000    19.4270   -35.2200 hc         1 74F       0.051367
     48 H19        -49.1420    18.2900   -34.6930 hc         1 74F       0.051367
     49 H20        -53.0610    17.3880   -30.4710 h1         1 74F       0.061367
     50 H21        -52.5320    19.0340   -30.8800 h1         1 74F       0.061367
     51 H22        -53.1060    17.9390   -32.1600 h1         1 74F       0.061367
     52 C18        -52.5650    18.0000   -31.2170 c3         1 74F       0.072900
@<TRIPOS>BOND
     1     1     2 ar  
     2     1     3 ar  
     3     1    30 1   
     4     2    19 ar  
     5     2    31 1   
     6     3    21 ar  
     7     3    32 1   
     8     4    17 1   
     9     4    19 ar  
    10     4    21 ar  
    11     5     8 1   
    12     5    20 ar  
    13     5    25 ar  
    14     6     7 ar  
    15     6    17 1   
    16     6    25 ar  
    17     7    18 1   
    18     7    23 ar  
    19     8    15 1   
    20     8    26 2   
    21     9    14 1   
    22     9    15 2   
    23     9    27 1   
    24    10    12 1   
    25    10    28 1   
    26    10    33 1   
    27    10    34 1   
    28    11    13 1   
    29    11    28 1   
    30    11    35 1   
    31    11    36 1   
    32    12    29 1   
    33    12    37 1   
    34    12    38 1   
    35    13    29 1   
    36    13    39 1   
    37    13    40 1   
    38    14    22 1   
    39    14    28 1   
    40    14    41 1   
    41    16    17 1   
    42    16    24 2   
    43    18    42 1   
    44    18    43 1   
    45    19    44 1   
    46    20    23 ar  
    47    20    45 1   
    48    21    24 1   
    49    22    46 1   
    50    22    47 1   
    51    22    48 1   
    52    26    27 1   
    53    27    52 1   
    54    49    52 1   
    55    50    52 1   
    56    51    52 1   
@<TRIPOS>SUBSTRUCTURE
     1 74F         1 TEMP              0 ****  ****    0 ROOT
