@<TRIPOS>MOLECULE
74F
   52    56     1     0     0
SMALL
No Charge or Current Charge


@<TRIPOS>ATOM
      1 C1         -41.8190    16.2410   -32.0920 ca         1 74F      -0.133000
      2 C2         -42.8360    16.9080   -31.3650 ca         1 74F      -0.086000
      3 C3         -41.9980    14.9040   -32.5150 ca         1 74F      -0.039000
      4 C7         -44.1720    14.9170   -31.4950 ca         1 74F      -0.034200
      5 C8         -48.5210    15.3090   -30.6610 ca         1 74F       0.217000
      6 C9         -46.4520    14.2210   -30.8190 ca         1 74F       0.341500
      7 C10        -46.8740    13.3730   -29.7250 ca         1 74F       0.612900
      8 C11        -49.4920    16.3460   -31.1030 cc         1 74F       0.499000
      9 C12        -50.2660    17.9730   -32.2120 cd         1 74F       0.422800
     10 C13        -49.8400    20.8080   -31.4340 c6         1 74F       0.124300
     11 C14        -49.9200    21.5350   -33.7840 c6         1 74F       0.124300
     12 C15        -48.9980    22.0750   -31.0990 c6         1 74F       0.153100
     13 C16        -49.0810    22.7880   -33.3940 c6         1 74F       0.153100
     14 C19        -50.4510    19.1340   -33.2020 c3         1 74F       0.161200
     15 N23        -49.1840    17.2210   -32.1110 nc         1 74F      -0.650000
     16 N25        -44.8470    12.8250   -31.9970 nc         1 74F      -0.198400
     17 N26        -45.1780    14.0100   -31.3550 na         1 74F       0.052100
     18 N29        -46.1830    12.3720   -29.1290 nv         1 74F      -1.064900
     19 C4         -44.0400    16.2410   -31.0540 ca         1 74F      -0.081000
     20 C5         -48.8830    14.4390   -29.5930 ca         1 74F       0.379900
     21 C6         -43.2050    14.2670   -32.1940 ca         1 74F       0.000400
     22 C17        -50.1950    18.6310   -34.6460 c3         1 74F      -0.087100
     23 N20        -48.0600    13.4630   -29.1150 nb         1 74F      -0.739000
     24 N21        -43.6170    12.9730   -32.4970 nd         1 74F      -0.200400
     25 N22        -47.2960    15.1970   -31.2770 nb         1 74F      -0.608000
     26 N24        -50.6940    16.4890   -30.5580 nd         1 74F      -0.539800
     27 N27        -51.1970    17.5410   -31.2750 na         1 74F      -0.068700
     28 N28        -49.6690    20.3750   -32.8620 n3         1 74F      -0.699600
     29 O30        -49.3210    23.1480   -32.0140 os         1 74F      -0.458000
     30 H1         -40.8930    16.7610   -32.3280 ha         1 74F       0.117000
     31 H2         -42.6880    17.9370   -31.0450 ha         1 74F       0.119000
     32 H3         -41.2240    14.3840   -33.0750 ha         1 74F       0.132000
     33 H4         -50.8980    21.0270   -31.2270 h1         1 74F       0.042950
     34 H5         -49.5350    20.0090   -30.7440 h1         1 74F       0.042950
     35 H6         -50.9850    21.8070   -33.7730 h1         1 74F       0.042950
     36 H7         -49.6620    21.2750   -34.8200 h1         1 74F       0.042950
     37 H8         -47.9250    21.8430   -31.1730 h1         1 74F       0.055450
     38 H9         -49.2070    22.4020   -30.0710 h1         1 74F       0.055450
     39 H10        -48.0100    22.5800   -33.5340 h1         1 74F       0.055450
     40 H11        -49.3520    23.6350   -34.0400 h1         1 74F       0.055450
     41 H12        -51.5160    19.4000   -33.1660 h1         1 74F       0.023700
     42 H13        -46.7520    11.7660   -28.5480 hn         1 74F       0.518000
     43 H14        -45.4570    11.9130   -29.6730 hn         1 74F       0.518000
     44 H15        -44.8320    16.7380   -30.4960 ha         1 74F       0.165000
     45 H16        -49.8510    14.5210   -29.1010 h4         1 74F       0.046100
     46 H17        -50.7160    17.6810   -34.8160 hc         1 74F       0.051367
     47 H18        -50.5670    19.3420   -35.3920 hc         1 74F       0.051367
     48 H19        -49.1250    18.4700   -34.8170 hc         1 74F       0.051367
     49 H20        -53.0150    17.5400   -30.1910 h1         1 74F       0.061367
     50 H21        -52.4730    19.1430   -30.7640 h1         1 74F       0.061367
     51 H22        -53.1610    17.9650   -31.9210 h1         1 74F       0.061367
     52 C18        -52.5440    18.0800   -31.0220 c3         1 74F       0.072900
@<TRIPOS>BOND
     1     1     2 ar  
     2     1     3 ar  
     3     1    30 1   
     4     2    19 ar  
     5     2    31 1   
     6     3    21 ar  
     7     3    32 1   
     8     4    17 1   
     9     4    19 ar  
    10     4    21 ar  
    11     5     8 1   
    12     5    20 ar  
    13     5    25 ar  
    14     6     7 ar  
    15     6    17 1   
    16     6    25 ar  
    17     7    18 1   
    18     7    23 ar  
    19     8    15 1   
    20     8    26 2   
    21     9    14 1   
    22     9    15 2   
    23     9    27 1   
    24    10    12 1   
    25    10    28 1   
    26    10    33 1   
    27    10    34 1   
    28    11    13 1   
    29    11    28 1   
    30    11    35 1   
    31    11    36 1   
    32    12    29 1   
    33    12    37 1   
    34    12    38 1   
    35    13    29 1   
    36    13    39 1   
    37    13    40 1   
    38    14    22 1   
    39    14    28 1   
    40    14    41 1   
    41    16    17 1   
    42    16    24 2   
    43    18    42 1   
    44    18    43 1   
    45    19    44 1   
    46    20    23 ar  
    47    20    45 1   
    48    21    24 1   
    49    22    46 1   
    50    22    47 1   
    51    22    48 1   
    52    26    27 1   
    53    27    52 1   
    54    49    52 1   
    55    50    52 1   
    56    51    52 1   
@<TRIPOS>SUBSTRUCTURE
     1 74F         1 TEMP              0 ****  ****    0 ROOT
