@<TRIPOS>MOLECULE
74G
  103   108     1     0     0
SMALL
bcc


@<TRIPOS>ATOM
      1 C           14.7150    -1.4230    -0.1560 c5         1 74G       0.105700
      2 N            5.6550     2.2830    -0.4690 ns         1 74G      -0.574900
      3 O            7.1580     3.7760     0.3140 o          1 74G      -0.610100
      4 C2          12.6540    -0.0230    -0.5120 c5         1 74G       0.026400
      5 N2          -7.1530    -1.9200     0.1480 nh         1 74G      -0.608000
      6 O2           1.1640    -0.5370    -1.3020 os         1 74G      -0.391600
      7 C3          11.5080     0.7110     0.1590 c3         1 74G      -0.058400
      8 N3          -9.0470     4.0910     1.3340 na         1 74G       0.023900
      9 O3          -0.8200    -1.7920     0.2810 os         1 74G      -0.417600
     10 C4          10.3050     0.9330    -0.7500 c3         1 74G      -0.078400
     11 N4          13.5930    -0.5820     1.7240 ns         1 74G      -0.581900
     12 O4          -5.3710    -1.3910     2.1690 o          1 74G      -0.611100
     13 C5           9.2080     1.7330    -0.0600 c3         1 74G      -0.067400
     14 N5          14.7630    -2.2800     0.9990 ns         1 74G      -0.593900
     15 C6           7.9910     1.9230    -0.9580 c3         1 74G      -0.155400
     16 C7           6.9050     2.7490    -0.3030 c          1 74G       0.667100
     17 C8           4.4690     2.9300     0.0430 c3         1 74G       0.103000
     18 C9           3.3530     2.9270    -0.9780 c3         1 74G       0.115400
     19 C10          2.0040     1.4800    -2.2420 c3         1 74G       0.140400
     20 C11          1.6890     0.0250    -2.4780 c3         1 74G       0.136400
     21 C12          0.8180    -1.8900    -1.4470 c3         1 74G       0.138400
     22 C37         14.1720    -1.7550     2.1000 c          1 74G       0.825500
     23 C36         13.9000    -0.2010     0.3680 c5         1 74G       0.097700
     24 S           12.2070    -1.7150    -1.0270 ss         1 74G      -0.314200
     25 C1          13.9600    -2.0480    -1.3310 c5         1 74G      -0.008300
     26 O1           3.0180     1.5940    -1.2750 os         1 74G      -0.409600
     27 C13          0.3640    -2.4380    -0.1190 c3         1 74G       0.137400
     28 C14         -1.2660    -2.1950     1.5520 c3         1 74G       0.117400
     29 C15         -2.5760    -1.5020     1.8480 c3         1 74G       0.103000
     30 N1          -3.5840    -1.8770     0.8800 ns         1 74G      -0.564900
     31 C16         -4.8990    -1.7920     1.1170 c          1 74G       0.658100
     32 C17         -5.7640    -2.2700    -0.0430 c3         1 74G       0.107800
     33 C35         -8.0980    -2.6730    -0.5660 ca         1 74G       0.091600
     34 C34         -8.3200    -4.0330    -0.4180 ca         1 74G      -0.113000
     35 C33         -9.2830    -4.6520    -1.2090 ca         1 74G      -0.102000
     36 C32        -10.0260    -3.9190    -2.1250 ca         1 74G      -0.126000
     37 C31         -9.8140    -2.5510    -2.2710 ca         1 74G      -0.083000
     38 C30         -8.8450    -1.9420    -1.4930 ca         1 74G      -0.011100
     39 S1          -8.3440    -0.2570    -1.5390 ss         1 74G      -0.326000
     40 C18         -7.4810    -0.5180     0.0760 c5         1 74G       0.319600
     41 C19         -8.3890    -0.1330     1.2510 c3         1 74G      -0.070100
     42 C20         -8.6850     1.3320     1.2800 ca         1 74G       0.103700
     43 C29         -9.9070     1.8990     0.8310 ca         1 74G      -0.067000
     44 C28        -10.9790     1.1140     0.3490 ca         1 74G      -0.054000
     45 C27        -12.1450     1.6940    -0.0660 ca         1 74G      -0.113000
     46 C26        -12.2900     3.0900    -0.0220 ca         1 74G      -0.035000
     47 C25        -11.2770     3.8900     0.4370 ca         1 74G      -0.167000
     48 C24        -10.0750     3.3070     0.8700 ca         1 74G       0.022700
     49 C22         -7.9140     3.5510     1.7510 ca         1 74G       0.028700
     50 C21         -7.7060     2.1830     1.7400 ca         1 74G      -0.203000
     51 H1          15.7190    -1.1350    -0.4770 h1         1 74G       0.063700
     52 H2           5.5290     1.4070    -0.9490 hn         1 74G       0.322500
     53 H3          12.9570     0.5240    -1.4110 h1         1 74G       0.068700
     54 H4          11.1980     0.1640     1.0530 hc         1 74G       0.054700
     55 H5          11.8830     1.6810     0.5010 hc         1 74G       0.054700
     56 H6          10.6210     1.4540    -1.6600 hc         1 74G       0.044700
     57 H7           9.9000    -0.0300    -1.0750 hc         1 74G       0.044700
     58 H8          13.3180     0.0930     2.4170 hn         1 74G       0.338500
     59 H9           8.9100     1.2200     0.8590 hc         1 74G       0.055200
     60 H10          9.6000     2.7080     0.2410 hc         1 74G       0.055200
     61 H11         15.3350    -3.1060     1.0440 hn         1 74G       0.345500
     62 H12          8.2900     2.4450    -1.8730 hc         1 74G       0.056700
     63 H13          7.6060     0.9500    -1.2730 hc         1 74G       0.056700
     64 H14          4.1310     2.4420     0.9630 h1         1 74G       0.064200
     65 H15          4.7120     3.9600     0.2960 h1         1 74G       0.064200
     66 H16          2.4910     3.4690    -0.5670 h1         1 74G       0.030700
     67 H17          3.6740     3.4630    -1.8820 h1         1 74G       0.030700
     68 H18          2.3150     1.9250    -3.1970 h1         1 74G       0.030200
     69 H19          1.0970     2.0120    -1.9220 h1         1 74G       0.030200
     70 H20          2.5930    -0.5100    -2.8010 h1         1 74G       0.030700
     71 H21          0.9690    -0.0360    -3.3060 h1         1 74G       0.030700
     72 H22          0.0260    -2.0180    -2.1990 h1         1 74G       0.030700
     73 H23          1.6760    -2.4870    -1.7850 h1         1 74G       0.030700
     74 H24         14.4900     0.7200     0.3440 h1         1 74G       0.061700
     75 H25         14.2660    -1.5820    -2.2690 h1         1 74G       0.078200
     76 H26         14.1380    -3.1200    -1.4090 h1         1 74G       0.078200
     77 H27          1.1560    -2.3020     0.6310 h1         1 74G       0.037200
     78 H28          0.2060    -3.5200    -0.2250 h1         1 74G       0.037200
     79 H29         -1.4030    -3.2840     1.5930 h1         1 74G       0.039200
     80 H30         -0.5390    -1.9280     2.3300 h1         1 74G       0.039200
     81 H31         -2.9050    -1.7980     2.8450 h1         1 74G       0.062700
     82 H32         -2.4320    -0.4170     1.8630 h1         1 74G       0.062700
     83 H33         -3.2710    -2.1170    -0.0480 hn         1 74G       0.330500
     84 H34         -5.6830    -3.3580    -0.0900 h1         1 74G       0.071200
     85 H35         -5.3620    -1.8900    -0.9930 h1         1 74G       0.071200
     86 H36         -7.7550    -4.6050     0.3060 ha         1 74G       0.152000
     87 H37         -9.4610    -5.7130    -1.0950 ha         1 74G       0.148000
     88 H38        -10.7790    -4.4100    -2.7270 ha         1 74G       0.147000
     89 H39        -10.3890    -1.9780    -2.9870 ha         1 74G       0.147000
     90 H40         -6.5820     0.0970     0.0740 h2         1 74G       0.090700
     91 H41         -9.2920    -0.7420     1.2320 hc         1 74G       0.104200
     92 H42         -7.8480    -0.3960     2.1610 hc         1 74G       0.104200
     93 H43        -10.8790     0.0410     0.3080 ha         1 74G       0.171000
     94 H44        -12.9570     1.0800    -0.4290 ha         1 74G       0.169000
     95 H45        -13.2130     3.5440    -0.3540 ha         1 74G       0.165000
     96 H46        -11.4210     4.9600     0.4600 ha         1 74G       0.159000
     97 H47        -10.0170     5.8140     2.0390 h1         1 74G       0.088700
     98 H48         -8.2800     5.9840     1.7510 h1         1 74G       0.088700
     99 H50         -7.1510     4.2280     2.1050 h4         1 74G       0.192000
    100 H51         -6.7620     1.8060     2.1050 ha         1 74G       0.196000
    101 H49         -9.3890     5.9290     0.3770 h1         1 74G       0.088700
    102 O5          14.1520    -2.2460     3.2190 o          1 74G      -0.653500
    103 C23         -9.1980     5.5470     1.3760 c3         1 74G      -0.013400
@<TRIPOS>BOND
     1     1    14 1   
     2     1    23 1   
     3     1    25 1   
     4     1    51 1   
     5     2    16 1   
     6     2    17 1   
     7     2    52 1   
     8     3    16 2   
     9     4     7 1   
    10     4    23 1   
    11     4    24 1   
    12     4    53 1   
    13     5    32 1   
    14     5    33 1   
    15     5    40 1   
    16     6    20 1   
    17     6    21 1   
    18     7    10 1   
    19     7    54 1   
    20     7    55 1   
    21     8    48 1   
    22     8    49 2   
    23     8   103 1   
    24     9    27 1   
    25     9    28 1   
    26    10    13 1   
    27    10    56 1   
    28    10    57 1   
    29    11    22 1   
    30    11    23 1   
    31    11    58 1   
    32    12    31 2   
    33    13    15 1   
    34    13    59 1   
    35    13    60 1   
    36    14    22 1   
    37    14    61 1   
    38    15    16 1   
    39    15    62 1   
    40    15    63 1   
    41    17    18 1   
    42    17    64 1   
    43    17    65 1   
    44    18    26 1   
    45    18    66 1   
    46    18    67 1   
    47    19    20 1   
    48    19    26 1   
    49    19    68 1   
    50    19    69 1   
    51    20    70 1   
    52    20    71 1   
    53    21    27 1   
    54    21    72 1   
    55    21    73 1   
    56    22   102 2   
    57    23    74 1   
    58    24    25 1   
    59    25    75 1   
    60    25    76 1   
    61    27    77 1   
    62    27    78 1   
    63    28    29 1   
    64    28    79 1   
    65    28    80 1   
    66    29    30 1   
    67    29    81 1   
    68    29    82 1   
    69    30    31 1   
    70    30    83 1   
    71    31    32 1   
    72    32    84 1   
    73    32    85 1   
    74    33    34 ar  
    75    33    38 ar  
    76    34    35 ar  
    77    34    86 1   
    78    35    36 ar  
    79    35    87 1   
    80    36    37 ar  
    81    36    88 1   
    82    37    38 ar  
    83    37    89 1   
    84    38    39 1   
    85    39    40 1   
    86    40    41 1   
    87    40    90 1   
    88    41    42 1   
    89    41    91 1   
    90    41    92 1   
    91    42    43 ar  
    92    42    50 ar  
    93    43    44 ar  
    94    43    48 ar  
    95    44    45 ar  
    96    44    93 1   
    97    45    46 ar  
    98    45    94 1   
    99    46    47 ar  
   100    46    95 1   
   101    47    48 ar  
   102    47    96 1   
   103    49    50 ar  
   104    49    99 1   
   105    50   100 1   
   106    97   103 1   
   107    98   103 1   
   108   101   103 1   
@<TRIPOS>SUBSTRUCTURE
     1 74G         1 TEMP              0 ****  ****    0 ROOT
