@<TRIPOS>MOLECULE
74G
  103   108     1     0     0
SMALL
No Charge or Current Charge


@<TRIPOS>ATOM
      1 C           15.3150    -1.7520     0.3480 c5         1 74G       0.105700
      2 N            6.3200     1.7770    -0.9430 ns         1 74G      -0.507900
      3 O            7.3050     2.3220    -2.9230 o          1 74G      -0.610100
      4 C2          13.0520    -0.9730    -0.5430 c5         1 74G       0.074300
      5 N2          -6.9630    -1.2430    -0.6480 nh         1 74G      -0.746400
      6 O2           1.1220    -0.2730    -0.5850 os         1 74G      -0.438000
      7 C3          12.0300     0.1800    -0.7300 c3         1 74G      -0.058400
      8 N3         -10.5480     2.9140     3.0450 na         1 74G       0.045300
      9 O3          -1.4200    -0.3270     0.9390 os         1 74G      -0.464000
     10 C4          10.6080    -0.2880    -1.1220 c3         1 74G      -0.078400
     11 N4          14.5850     0.4820     0.7040 ns         1 74G      -0.514900
     12 O4          -5.2170    -1.2840     2.3660 o          1 74G      -0.611100
     13 C5           9.6250     0.8840    -1.3400 c3         1 74G      -0.067400
     14 N5          15.7010    -1.1760     1.6390 ns         1 74G      -0.526900
     15 C6           8.2040     0.4140    -1.7330 c3         1 74G      -0.155400
     16 C7           7.2540     1.6000    -1.9370 c          1 74G       0.600100
     17 C8           5.2600     2.7960    -0.9630 c3         1 74G       0.103000
     18 C9           4.1090     2.4620    -1.9410 c3         1 74G       0.138600
     19 C10          2.4120     0.7830    -2.3610 c3         1 74G       0.163600
     20 C11          1.8490    -0.5450    -1.8000 c3         1 74G       0.159600
     21 C12          0.5550    -1.4390     0.0450 c3         1 74G       0.161600
     22 C37         15.2360     0.0810     1.8180 c          1 74G       0.616000
     23 C36         14.5530    -0.5460    -0.3440 c5         1 74G       0.097700
     24 S           12.6420    -2.0170     0.9300 ss         1 74G      -0.410000
     25 C1          14.2720    -2.8660     0.7000 c5         1 74G       0.039600
     26 O1           3.5000     1.2250    -1.5240 os         1 74G      -0.456000
     27 C13         -0.2050    -1.0060     1.3210 c3         1 74G       0.160600
     28 C14         -2.2190     0.1360     2.0440 c3         1 74G       0.140600
     29 C15         -3.4820     0.8270     1.4800 c3         1 74G       0.103000
     30 N1          -4.3180    -0.0660     0.6640 ns         1 74G      -0.497900
     31 C16         -5.1000    -1.0860     1.1630 c          1 74G       0.591100
     32 C17         -5.8450    -1.9230     0.0870 c3         1 74G       0.107800
     33 C35         -7.3970    -1.6820    -1.9040 ca         1 74G       0.230000
     34 C34         -7.0210    -2.8700    -2.5570 ca         1 74G      -0.095000
     35 C33         -7.5650    -3.1580    -3.8250 ca         1 74G      -0.084000
     36 C32         -8.4730    -2.2620    -4.4270 ca         1 74G      -0.108000
     37 C31         -8.8430    -1.0770    -3.7630 ca         1 74G      -0.065000
     38 C30         -8.2940    -0.8100    -2.4990 ca         1 74G      -0.138000
     39 S1          -8.6440     0.6420    -1.5360 ss         1 74G      -0.247000
     40 C18         -7.6790    -0.0610    -0.0790 c5         1 74G       0.367500
     41 C19         -8.6360    -0.4740     1.0590 c3         1 74G      -0.070100
     42 C20         -9.3640     0.7060     1.7070 ca         1 74G       0.103700
     43 C29        -10.6960     1.1020     1.3880 ca         1 74G      -0.067000
     44 C28        -11.4590     0.4210     0.4050 ca         1 74G      -0.036000
     45 C27        -12.7670     0.8240     0.0970 ca         1 74G      -0.095000
     46 C26        -13.3410     1.9120     0.7610 ca         1 74G      -0.017000
     47 C25        -12.6060     2.6030     1.7350 ca         1 74G      -0.149000
     48 C24        -11.2820     2.2140     2.0640 ca         1 74G      -0.028000
     49 C22         -9.2400     2.5250     3.3270 ca         1 74G       0.046700
     50 C21         -8.6520     1.4340     2.6760 ca         1 74G      -0.185000
     51 H1          16.1710    -2.1250    -0.2310 h1         1 74G       0.063700
     52 H2           6.3360     1.1140    -0.1780 hn         1 74G       0.322500
     53 H3          12.9900    -1.6160    -1.4320 h1         1 74G       0.068700
     54 H4          11.9590     0.7740     0.1890 hc         1 74G       0.054700
     55 H5          12.3980     0.8580    -1.5110 hc         1 74G       0.054700
     56 H6          10.6670    -0.8840    -2.0410 hc         1 74G       0.044700
     57 H7          10.2110    -0.9450    -0.3400 hc         1 74G       0.044700
     58 H8          14.1800     1.4080     0.6670 hn         1 74G       0.338500
     59 H9           9.5650     1.4810    -0.4210 hc         1 74G       0.055200
     60 H10         10.0170     1.5440    -2.1250 hc         1 74G       0.055200
     61 H11         16.2150    -1.6300     2.3840 hn         1 74G       0.345500
     62 H12          8.2710    -0.1460    -2.6730 hc         1 74G       0.056700
     63 H13          7.8220    -0.2400    -0.9400 hc         1 74G       0.056700
     64 H14          4.8510     2.9010     0.0500 h1         1 74G       0.064200
     65 H15          5.7000     3.7620    -1.2450 h1         1 74G       0.064200
     66 H16          3.3750     3.2780    -1.9240 h1         1 74G       0.030700
     67 H17          4.5050     2.3770    -2.9610 h1         1 74G       0.030700
     68 H18          2.7670     0.6120    -3.3860 h1         1 74G       0.030200
     69 H19          1.6120     1.5340    -2.3990 h1         1 74G       0.030200
     70 H20          2.6750    -1.2450    -1.6180 h1         1 74G       0.030700
     71 H21          1.1820    -0.9910    -2.5500 h1         1 74G       0.030700
     72 H22         -0.1340    -1.9600    -0.6340 h1         1 74G       0.030700
     73 H23          1.3500    -2.1410     0.3280 h1         1 74G       0.030700
     74 H24         15.0310    -0.2140    -1.2750 h1         1 74G       0.061700
     75 H25         14.1790    -3.5760    -0.1330 h1         1 74G       0.078200
     76 H26         14.5480    -3.4390     1.5950 h1         1 74G       0.078200
     77 H27          0.4380    -0.3550     1.9280 h1         1 74G       0.037200
     78 H28         -0.4410    -1.9000     1.9130 h1         1 74G       0.037200
     79 H29         -2.5150    -0.7020     2.6890 h1         1 74G       0.039200
     80 H30         -1.6580     0.8560     2.6540 h1         1 74G       0.039200
     81 H31         -4.0830     1.2120     2.3140 h1         1 74G       0.062700
     82 H32         -3.1780     1.6840     0.8650 h1         1 74G       0.062700
     83 H33         -4.2860     0.0270    -0.3450 hn         1 74G       0.330500
     84 H34         -6.2250    -2.8240     0.5840 h1         1 74G       0.071200
     85 H35         -5.0750    -2.2420    -0.6280 h1         1 74G       0.071200
     86 H36         -6.3280    -3.5650    -2.0940 ha         1 74G       0.134000
     87 H37         -7.2830    -4.0740    -4.3410 ha         1 74G       0.130000
     88 H38         -8.8900    -2.4860    -5.4070 ha         1 74G       0.129000
     89 H39         -9.5420    -0.3800    -4.2210 ha         1 74G       0.129000
     90 H40         -6.9820     0.7080     0.2800 h2         1 74G       0.090700
     91 H41         -9.3200    -1.2510     0.7100 hc         1 74G       0.104200
     92 H42         -8.0480    -0.9790     1.8330 hc         1 74G       0.104200
     93 H43        -11.0590    -0.4210    -0.1500 ha         1 74G       0.153000
     94 H44        -13.3350     0.2910    -0.6620 ha         1 74G       0.151000
     95 H45        -14.3560     2.2240     0.5200 ha         1 74G       0.147000
     96 H46        -13.0900     3.4440     2.2240 ha         1 74G       0.141000
     97 H47        -12.0350     3.7050     4.3280 h1         1 74G       0.088700
     98 H48        -10.4230     4.4300     4.5370 h1         1 74G       0.088700
     99 H50         -8.6890     3.0910     4.0790 h4         1 74G       0.174000
    100 H51         -7.6320     1.1540     2.9320 ha         1 74G       0.178000
    101 H49        -11.3980     4.8520     3.1070 h1         1 74G       0.088700
    102 O5          15.3950     0.7520     2.8190 o          1 74G      -0.578000
    103 C23        -11.1360     4.0430     3.8000 c3         1 74G       0.015900
@<TRIPOS>BOND
     1     1    14 1   
     2     1    23 1   
     3     1    25 1   
     4     1    51 1   
     5     2    16 1   
     6     2    17 1   
     7     2    52 1   
     8     3    16 2   
     9     4     7 1   
    10     4    23 1   
    11     4    24 1   
    12     4    53 1   
    13     5    32 1   
    14     5    33 1   
    15     5    40 1   
    16     6    20 1   
    17     6    21 1   
    18     7    10 1   
    19     7    54 1   
    20     7    55 1   
    21     8    48 1   
    22     8    49 2   
    23     8   103 1   
    24     9    27 1   
    25     9    28 1   
    26    10    13 1   
    27    10    56 1   
    28    10    57 1   
    29    11    22 1   
    30    11    23 1   
    31    11    58 1   
    32    12    31 2   
    33    13    15 1   
    34    13    59 1   
    35    13    60 1   
    36    14    22 1   
    37    14    61 1   
    38    15    16 1   
    39    15    62 1   
    40    15    63 1   
    41    17    18 1   
    42    17    64 1   
    43    17    65 1   
    44    18    26 1   
    45    18    66 1   
    46    18    67 1   
    47    19    20 1   
    48    19    26 1   
    49    19    68 1   
    50    19    69 1   
    51    20    70 1   
    52    20    71 1   
    53    21    27 1   
    54    21    72 1   
    55    21    73 1   
    56    22   102 2   
    57    23    74 1   
    58    24    25 1   
    59    25    75 1   
    60    25    76 1   
    61    27    77 1   
    62    27    78 1   
    63    28    29 1   
    64    28    79 1   
    65    28    80 1   
    66    29    30 1   
    67    29    81 1   
    68    29    82 1   
    69    30    31 1   
    70    30    83 1   
    71    31    32 1   
    72    32    84 1   
    73    32    85 1   
    74    33    34 ar  
    75    33    38 ar  
    76    34    35 ar  
    77    34    86 1   
    78    35    36 ar  
    79    35    87 1   
    80    36    37 ar  
    81    36    88 1   
    82    37    38 ar  
    83    37    89 1   
    84    38    39 1   
    85    39    40 1   
    86    40    41 1   
    87    40    90 1   
    88    41    42 1   
    89    41    91 1   
    90    41    92 1   
    91    42    43 ar  
    92    42    50 ar  
    93    43    44 ar  
    94    43    48 ar  
    95    44    45 ar  
    96    44    93 1   
    97    45    46 ar  
    98    45    94 1   
    99    46    47 ar  
   100    46    95 1   
   101    47    48 ar  
   102    47    96 1   
   103    49    50 ar  
   104    49    99 1   
   105    50   100 1   
   106    97   103 1   
   107    98   103 1   
   108   101   103 1   
@<TRIPOS>SUBSTRUCTURE
     1 74G         1 TEMP              0 ****  ****    0 ROOT
