@<TRIPOS>MOLECULE
74H
   49    53     1     0     0
SMALL
No Charge or Current Charge


@<TRIPOS>ATOM
      1 C1          -6.8970     1.4280    -1.9420 ca         1 74H      -0.104000
      2 C2          -6.0410     0.4210    -2.4190 ca         1 74H      -0.110500
      3 C3          -6.9540     1.7040    -0.5650 ca         1 74H      -0.110500
      4 C7           0.5130    -1.8880    -0.8010 ca         1 74H       0.389900
      5 C8           3.9270     1.8520    -0.6580 cc         1 74H      -0.132000
      6 C9          -5.2940    -0.0350    -0.1390 ca         1 74H      -0.060300
      7 C10          0.3870    -0.6220    -0.1590 ca         1 74H       0.223000
      8 C11          5.8620     0.9840     0.1390 cd         1 74H       0.212500
      9 C12          2.6820    -0.2530    -0.4780 ca         1 74H       0.327500
     10 C13          2.7420    -1.5440    -1.1290 ca         1 74H       0.619900
     11 C14         -0.9460    -0.1920     0.3420 cc         1 74H       0.488000
     12 C15         -3.0200    -0.3010     0.7410 cd         1 74H       0.462800
     13 C16          7.2970     0.9130     0.6070 c          1 74H       0.538600
     14 C19         -4.4220    -0.8150     0.8080 cx         1 74H      -0.125000
     15 N23          5.0310    -0.0610     0.1350 nc         1 74H      -0.562800
     16 N25         -1.1570     0.9700     0.9460 nd         1 74H      -0.497800
     17 N26          3.8700     0.4950    -0.3750 na         1 74H       0.145300
     18 N29          7.7190    -0.3020     1.0410 nt         1 74H      -0.597000
     19 C4          -5.2420    -0.3070    -1.5200 ca         1 74H      -0.099500
     20 C5          -6.1550     0.9760     0.3330 ca         1 74H      -0.099500
     21 C6           5.2200     2.1580    -0.3390 cd         1 74H      -0.181000
     22 C17         -4.9640    -1.3070     2.1370 cx         1 74H      -0.099900
     23 C18         -4.6870    -2.2930     1.0310 cx         1 74H      -0.099900
     24 N21          1.6940    -2.3600    -1.2940 nb         1 74H      -0.744000
     25 N22          1.4790     0.1990     0.0020 nb         1 74H      -0.618000
     26 N24         -2.0420    -0.9980     0.1960 nc         1 74H      -0.706000
     27 N27         -2.4990     0.8970     1.2070 na         1 74H      -0.044700
     28 N28          3.8200    -2.1510    -1.6780 nv         1 74H      -1.063900
     29 O30          8.0720     1.8590     0.6150 o          1 74H      -0.597100
     30 H1          -7.5150     1.9920    -2.6370 ha         1 74H       0.115000
     31 H2          -5.9950     0.2060    -3.4840 ha         1 74H       0.115500
     32 H3          -7.6160     2.4840    -0.1940 ha         1 74H       0.115500
     33 H4          -0.3450    -2.5450    -0.9320 h4         1 74H       0.052100
     34 H5           3.0950     2.4350    -1.0350 h4         1 74H       0.185000
     35 H6          -2.5060     2.6470     2.3940 h1         1 74H       0.062700
     36 H7          -3.7860     2.5640     1.1480 h1         1 74H       0.062700
     37 H8          -3.9090     1.5650     2.6270 h1         1 74H       0.062700
     38 H9           7.0730    -1.0780     1.0390 hn         1 74H       0.318500
     39 H10          8.6670    -0.4160     1.3680 hn         1 74H       0.318500
     40 H11         -4.5790    -1.0830    -1.8970 ha         1 74H       0.118500
     41 H12         -6.2070     1.2010     1.3960 ha         1 74H       0.118500
     42 H13          5.6810     3.1370    -0.4220 ha         1 74H       0.166000
     43 H14         -4.2930    -1.3080     2.9930 hc         1 74H       0.083700
     44 H15         -6.0050    -1.1060     2.3790 hc         1 74H       0.083700
     45 H16         -5.5410    -2.7370     0.5250 hc         1 74H       0.083700
     46 H17         -3.8360    -2.9590     1.1500 hc         1 74H       0.083700
     47 H18          4.7200    -1.8540    -1.3080 hn         1 74H       0.513000
     48 H19          3.7090    -3.1460    -1.8330 hn         1 74H       0.513000
     49 C20         -3.2180     1.9850     1.8860 c3         1 74H       0.071900
@<TRIPOS>BOND
     1     1     2 ar  
     2     1     3 ar  
     3     1    30 1   
     4     2    19 ar  
     5     2    31 1   
     6     3    20 ar  
     7     3    32 1   
     8     4     7 ar  
     9     4    24 ar  
    10     4    33 1   
    11     5    17 1   
    12     5    21 2   
    13     5    34 1   
    14     6    14 1   
    15     6    19 ar  
    16     6    20 ar  
    17     7    11 1   
    18     7    25 ar  
    19     8    13 1   
    20     8    15 2   
    21     8    21 1   
    22     9    10 ar  
    23     9    17 1   
    24     9    25 ar  
    25    10    24 ar  
    26    10    28 1   
    27    11    16 2   
    28    11    26 1   
    29    12    14 1   
    30    12    26 2   
    31    12    27 1   
    32    13    18 1   
    33    13    29 2   
    34    14    22 1   
    35    14    23 1   
    36    15    17 1   
    37    16    27 1   
    38    18    38 1   
    39    18    39 1   
    40    19    40 1   
    41    20    41 1   
    42    21    42 1   
    43    22    23 1   
    44    22    43 1   
    45    22    44 1   
    46    23    45 1   
    47    23    46 1   
    48    27    49 1   
    49    28    47 1   
    50    28    48 1   
    51    35    49 1   
    52    36    49 1   
    53    37    49 1   
@<TRIPOS>SUBSTRUCTURE
     1 74H         1 TEMP              0 ****  ****    0 ROOT
