@<TRIPOS>MOLECULE
74H
   49    53     1     0     0
SMALL
bcc


@<TRIPOS>ATOM
      1 C1          -6.7610     1.4990    -2.0690 ca         1 74H      -0.122000
      2 C2          -5.6910     0.7090    -2.4720 ca         1 74H      -0.128500
      3 C3          -7.0720     1.5920    -0.7210 ca         1 74H      -0.128500
      4 C7           0.5880    -2.2430    -0.4980 ca         1 74H       0.389900
      5 C8           3.5320     1.6680     0.2220 cc         1 74H      -0.099300
      6 C9          -5.2510     0.1020    -0.1730 ca         1 74H      -0.060300
      7 C10          0.4080    -0.9590    -0.0060 ca         1 74H       0.223000
      8 C11          5.6490     1.1130     0.0600 cd         1 74H       0.277800
      9 C12          2.6430    -0.5890    -0.2170 ca         1 74H       0.327500
     10 C13          2.8440    -1.9060    -0.7290 ca         1 74H       0.619900
     11 C14         -0.9050    -0.4530     0.3780 cc         1 74H       0.488000
     12 C15         -2.9700    -0.3890     0.7210 cd         1 74H       0.462800
     13 C16          7.1310     1.1500     0.0370 c          1 74H       0.605600
     14 C19         -4.4180    -0.6730     0.8040 cx         1 74H      -0.125000
     15 N23          4.9660     0.0060    -0.1570 nc         1 74H      -0.562800
     16 N25         -1.1030     0.7560     0.8540 nd         1 74H      -0.497800
     17 N26          3.6870     0.3470    -0.0600 na         1 74H       0.094600
     18 N29          7.7390    -0.0260    -0.1530 nt         1 74H      -0.664000
     19 C4          -4.9440     0.0170    -1.5320 ca         1 74H      -0.117500
     20 C5          -6.3180     0.9020     0.2220 ca         1 74H      -0.117500
     21 C6           4.7890     2.1990     0.3040 cd         1 74H      -0.264300
     22 C17         -4.9650    -1.0520     2.1560 cx         1 74H      -0.099900
     23 C18         -4.8010    -2.0960     1.1040 cx         1 74H      -0.099900
     24 N21          1.7790    -2.6950    -0.8460 nb         1 74H      -0.744000
     25 N22          1.4640    -0.1600     0.1250 nb         1 74H      -0.618000
     26 N24         -2.0290    -1.1950     0.2770 nc         1 74H      -0.706000
     27 N27         -2.4190     0.7810     1.0740 na         1 74H      -0.015400
     28 N28          4.0270    -2.3920    -1.1250 nv         1 74H      -0.953500
     29 O30          7.7190     2.2120     0.1890 o          1 74H      -0.597100
     30 H1          -7.3470     2.0380    -2.8010 ha         1 74H       0.133000
     31 H2          -5.4380     0.6300    -3.5220 ha         1 74H       0.133500
     32 H3          -7.9010     2.2070    -0.3950 ha         1 74H       0.133500
     33 H4          -0.2500    -2.9190    -0.6140 h4         1 74H       0.052100
     34 H5           2.5590     2.1120     0.3390 h4         1 74H       0.203000
     35 H6          -2.4370     2.3870     2.3810 h1         1 74H       0.062700
     36 H7          -3.1900     2.7090     0.8060 h1         1 74H       0.062700
     37 H8          -4.0250     1.7080     2.0070 h1         1 74H       0.062700
     38 H9           7.2230    -0.8840    -0.2410 hn         1 74H       0.318500
     39 H10          8.7440    -0.0800    -0.1660 hn         1 74H       0.318500
     40 H11         -4.1140    -0.6000    -1.8570 ha         1 74H       0.136500
     41 H12         -6.5690     0.9960     1.2710 ha         1 74H       0.136500
     42 H13          5.0540     3.2220     0.5090 ha         1 74H       0.184000
     43 H14         -4.2760    -1.0510     2.9910 hc         1 74H       0.083700
     44 H15         -5.9660    -0.7260     2.4060 hc         1 74H       0.083700
     45 H16         -5.6900    -2.4700     0.6150 hc         1 74H       0.083700
     46 H17         -4.0030    -2.8190     1.2080 hc         1 74H       0.083700
     47 H18          4.8760    -1.8870    -0.9380 hn         1 74H       0.457800
     48 H19          4.0760    -3.3550    -1.4120 hn         1 74H       0.457800
     49 C20         -3.0560     1.9680     1.5930 c3         1 74H       0.042600
@<TRIPOS>BOND
     1     1     2 ar  
     2     1     3 ar  
     3     1    30 1   
     4     2    19 ar  
     5     2    31 1   
     6     3    20 ar  
     7     3    32 1   
     8     4     7 ar  
     9     4    24 ar  
    10     4    33 1   
    11     5    17 1   
    12     5    21 2   
    13     5    34 1   
    14     6    14 1   
    15     6    19 ar  
    16     6    20 ar  
    17     7    11 1   
    18     7    25 ar  
    19     8    13 1   
    20     8    15 2   
    21     8    21 1   
    22     9    10 ar  
    23     9    17 1   
    24     9    25 ar  
    25    10    24 ar  
    26    10    28 1   
    27    11    16 2   
    28    11    26 1   
    29    12    14 1   
    30    12    26 2   
    31    12    27 1   
    32    13    18 1   
    33    13    29 2   
    34    14    22 1   
    35    14    23 1   
    36    15    17 1   
    37    16    27 1   
    38    18    38 1   
    39    18    39 1   
    40    19    40 1   
    41    20    41 1   
    42    21    42 1   
    43    22    23 1   
    44    22    43 1   
    45    22    44 1   
    46    23    45 1   
    47    23    46 1   
    48    27    49 1   
    49    28    47 1   
    50    28    48 1   
    51    35    49 1   
    52    36    49 1   
    53    37    49 1   
@<TRIPOS>SUBSTRUCTURE
     1 74H         1 TEMP              0 ****  ****    0 ROOT
