@<TRIPOS>MOLECULE
74I
   10     9     1     0     0
SMALL
bcc


@<TRIPOS>ATOM
      1 C4           3.1400   -26.6810    10.0760 ce         1 74I      -0.046100
      2 C5           3.0910   -27.7150    10.9160 c2         1 74I      -0.109900
      3 O3           0.8650   -26.0310    10.3310 o          1 74I      -0.824800
      4 C1           1.9510   -25.7970     9.7790 c          1 74I       0.908800
      5 O2           2.2200   -24.8790     8.9660 o          1 74I      -0.824800
      6 O6           4.2730   -26.3340     9.4130 oh         1 74I      -0.534100
      7 O7           4.1810   -28.4900    11.1680 oh         1 74I      -0.520100
      8 H1           2.1650   -27.9560    11.4220 h4         1 74I       0.132000
      9 H3           3.9770   -25.5550     8.9030 ho         1 74I       0.440000
     10 H4           3.9390   -29.1800    11.7920 ho         1 74I       0.378000
@<TRIPOS>BOND
     1     1     2 2   
     2     1     4 1   
     3     1     6 1   
     4     2     7 1   
     5     2     8 1   
     6     3     4 1   
     7     4     5 1   
     8     6     9 1   
     9     7    10 1   
@<TRIPOS>SUBSTRUCTURE
     1 74I         1 TEMP              0 ****  ****    0 ROOT
