@<TRIPOS>MOLECULE
74I
   10     9     1     0     0
SMALL
No Charge or Current Charge


@<TRIPOS>ATOM
      1 C4           3.1630   -26.6690    10.0610 ce         1 74I      -0.046100
      2 C5           3.1140   -27.7230    10.9150 c2         1 74I      -0.159900
      3 O3           0.8800   -26.0230    10.3230 o          1 74I      -0.719500
      4 C1           1.9470   -25.7850     9.7720 c          1 74I       0.698200
      5 O2           2.1050   -24.8610     8.9840 o          1 74I      -0.719500
      6 O6           4.3080   -26.3150     9.3920 oh         1 74I      -0.573100
      7 O7           4.1710   -28.5210    11.1910 oh         1 74I      -0.559100
      8 H1           2.1870   -27.9830    11.4360 h4         1 74I       0.182000
      9 H3           4.0380   -25.5270     8.8580 ho         1 74I       0.479000
     10 H4           3.8890   -29.2110    11.8340 ho         1 74I       0.417000
@<TRIPOS>BOND
     1     1     2 2   
     2     1     4 1   
     3     1     6 1   
     4     2     7 1   
     5     2     8 1   
     6     3     4 1   
     7     4     5 1   
     8     6     9 1   
     9     7    10 1   
@<TRIPOS>SUBSTRUCTURE
     1 74I         1 TEMP              0 ****  ****    0 ROOT
