@<TRIPOS>MOLECULE
74J
   49    53     1     0     0
SMALL
bcc


@<TRIPOS>ATOM
      1 C1          -6.2730     1.7670    -2.1890 ca         1 74J      -0.122000
      2 C2          -5.4130     0.7280    -2.5270 ca         1 74J      -0.128500
      3 C3          -6.4800     2.0770    -0.8530 ca         1 74J      -0.128500
      4 C7           0.5260    -2.6340    -0.4820 ca         1 74J       0.390900
      5 C8           3.9080     0.9140     0.1580 cc         1 74J      -0.010300
      6 C9           5.2250     1.3080     0.1700 cd         1 74J      -0.366900
      7 C10         -4.9750     0.3110    -0.1870 ca         1 74J      -0.060300
      8 C11          0.5000    -1.3280    -0.0180 ca         1 74J       0.223000
      9 C12          2.7550    -1.2050    -0.3040 ca         1 74J       0.325500
     10 C13          2.7970    -2.5460    -0.7930 ca         1 74J       0.620900
     11 C14         -0.7390    -0.6750     0.3890 cc         1 74J       0.487000
     12 C15         -2.7770    -0.3740     0.7640 cd         1 74J       0.460800
     13 C16          5.6790     2.6710     0.5000 c          1 74J       0.726700
     14 C19         -4.2480    -0.4880     0.8530 cx         1 74J      -0.122000
     15 N23          1.6400    -0.6450     0.0610 nb         1 74J      -0.619000
     16 N25         -0.7890     0.5500     0.8640 nd         1 74J      -0.493800
     17 N26          3.9000    -0.3880    -0.1870 na         1 74J       0.081600
     18 N29          7.0030     2.8800     0.4420 nt         1 74J      -0.674000
     19 C4          -4.7700     0.0070    -1.5330 ca         1 74J      -0.115500
     20 C5          -5.8320     1.3550     0.1420 ca         1 74J      -0.115500
     21 C6           5.9440     0.1470    -0.1880 cd         1 74J       0.354200
     22 C17         -4.8480    -0.7060     2.2160 cx         1 74J      -0.101900
     23 C18         -4.7900    -1.8350     1.2410 cx         1 74J      -0.101900
     24 N21          1.6510    -3.2190    -0.8550 nb         1 74J      -0.746000
     25 N22          5.1350    -0.8630    -0.3980 nc         1 74J      -0.565800
     26 N24         -1.9420    -1.2840     0.3090 nc         1 74J      -0.706000
     27 N27         -2.0900     0.7260     1.1050 na         1 74J      -0.014400
     28 N28          3.9080    -3.1650    -1.2140 nv         1 74J      -0.951500
     29 O30          4.8760     3.5430     0.8060 o          1 74J      -0.612100
     30 H1          -6.7770     2.3300    -2.9630 ha         1 74J       0.133000
     31 H2          -5.2470     0.4760    -3.5670 ha         1 74J       0.133000
     32 H3          -7.1440     2.8880    -0.5810 ha         1 74J       0.133000
     33 H4          -0.3820    -3.2200    -0.5540 h4         1 74J       0.052100
     34 H5           3.0020     1.4560     0.3670 h4         1 74J       0.218000
     35 H6          -1.8960     2.3490     2.3770 h1         1 74J       0.062367
     36 H7          -2.6750     2.7170     0.8240 h1         1 74J       0.062367
     37 H8          -3.5560     1.8250     2.0760 h1         1 74J       0.062367
     38 H9           7.6610     2.1640     0.1910 hn         1 74J       0.312500
     39 H10          7.3770     3.7880     0.6650 hn         1 74J       0.312500
     40 H11         -4.1040    -0.8050    -1.8010 ha         1 74J       0.136500
     41 H12         -5.9980     1.6150     1.1800 ha         1 74J       0.136500
     42 H13          7.0090     0.0090    -0.3000 h4         1 74J       0.036100
     43 H14         -4.1760    -0.7260     3.0640 hc         1 74J       0.083450
     44 H15         -5.8110    -0.2580     2.4250 hc         1 74J       0.083450
     45 H16         -5.7110    -2.1430     0.7650 hc         1 74J       0.083450
     46 H17         -4.0790    -2.6320     1.4120 hc         1 74J       0.083450
     47 H18          4.8100    -2.7420    -1.0690 hn         1 74J       0.461300
     48 H19          3.8460    -4.1400    -1.4540 hn         1 74J       0.461300
     49 C20         -2.5830     1.9800     1.6210 c3         1 74J       0.042600
@<TRIPOS>BOND
     1     1     2 ar  
     2     1     3 ar  
     3     1    30 1   
     4     2    19 ar  
     5     2    31 1   
     6     3    20 ar  
     7     3    32 1   
     8     4     8 ar  
     9     4    24 ar  
    10     4    33 1   
    11     5     6 2   
    12     5    17 1   
    13     5    34 1   
    14     6    13 1   
    15     6    21 1   
    16     7    14 1   
    17     7    19 ar  
    18     7    20 ar  
    19     8    11 1   
    20     8    15 ar  
    21     9    10 ar  
    22     9    15 ar  
    23     9    17 1   
    24    10    24 ar  
    25    10    28 1   
    26    11    16 2   
    27    11    26 1   
    28    12    14 1   
    29    12    26 2   
    30    12    27 1   
    31    13    18 1   
    32    13    29 2   
    33    14    22 1   
    34    14    23 1   
    35    16    27 1   
    36    17    25 1   
    37    18    38 1   
    38    18    39 1   
    39    19    40 1   
    40    20    41 1   
    41    21    25 2   
    42    21    42 1   
    43    22    23 1   
    44    22    43 1   
    45    22    44 1   
    46    23    45 1   
    47    23    46 1   
    48    27    49 1   
    49    28    47 1   
    50    28    48 1   
    51    35    49 1   
    52    36    49 1   
    53    37    49 1   
@<TRIPOS>SUBSTRUCTURE
     1 74J         1 TEMP              0 ****  ****    0 ROOT
