@<TRIPOS>MOLECULE
74J
   49    53     1     0     0
SMALL
No Charge or Current Charge


@<TRIPOS>ATOM
      1 C1          -6.4600     1.7700    -2.1000 ca         1 74J      -0.104000
      2 C2          -5.6960     0.6710    -2.5270 ca         1 74J      -0.110500
      3 C3          -6.5430     2.0760    -0.7320 ca         1 74J      -0.110500
      4 C7           0.5060    -2.2810    -0.6060 ca         1 74J       0.390900
      5 C8           4.2600     1.1050    -0.2870 cc         1 74J      -0.043000
      6 C9           5.5750     1.2820     0.0600 cd         1 74J      -0.301600
      7 C10         -5.0950     0.1790    -0.2120 ca         1 74J      -0.060300
      8 C11          0.4870    -0.9990     0.0160 ca         1 74J       0.223000
      9 C12          2.8200    -0.8770    -0.2090 ca         1 74J       0.325500
     10 C13          2.7700    -2.1780    -0.8430 ca         1 74J       0.620900
     11 C14         -0.8120    -0.4240     0.4540 cc         1 74J       0.487000
     12 C15         -2.9000    -0.3080     0.7670 cd         1 74J       0.460800
     13 C16          6.2760     2.5730    -0.0140 c          1 74J       0.659700
     14 C19         -4.3510    -0.6710     0.7810 cx         1 74J      -0.122000
     15 N23          1.6520    -0.2940     0.2140 nb         1 74J      -0.619000
     16 N25         -0.9240     0.7640     1.0340 nd         1 74J      -0.493800
     17 N26          4.0720    -0.2510    -0.0610 na         1 74J       0.132300
     18 N29          7.5660     2.5580     0.3730 nt         1 74J      -0.607000
     19 C4          -5.0160    -0.1210    -1.5860 ca         1 74J      -0.097500
     20 C5          -5.8630     1.2840     0.2100 ca         1 74J      -0.097500
     21 C6           6.0750     0.0300     0.4890 cd         1 74J       0.288900
     22 C17         -4.9950    -1.0790     2.0930 cx         1 74J      -0.101900
     23 C18         -4.7790    -2.1080     1.0130 cx         1 74J      -0.101900
     24 N21          1.6510    -2.8810    -1.0420 nb         1 74J      -0.746000
     25 N22          5.1690    -0.9320     0.4410 nc         1 74J      -0.565800
     26 N24         -1.9800    -1.1130     0.2720 nc         1 74J      -0.706000
     27 N27         -2.2750     0.8370     1.2400 na         1 74J      -0.043700
     28 N28          3.7990    -2.9030    -1.3380 nv         1 74J      -1.061900
     29 O30          5.7570     3.6070    -0.3960 o          1 74J      -0.612100
     30 H1          -6.9870     2.3840    -2.8290 ha         1 74J       0.115000
     31 H2          -5.6300     0.4330    -3.5870 ha         1 74J       0.115000
     32 H3          -7.1340     2.9270    -0.4000 ha         1 74J       0.115000
     33 H4          -0.4110    -2.8470    -0.7660 h4         1 74J       0.052100
     34 H5           3.4900     1.7780    -0.6500 h4         1 74J       0.200000
     35 H6          -2.1450     2.5970     2.4040 h1         1 74J       0.062367
     36 H7          -3.3750     2.6290     1.1060 h1         1 74J       0.062367
     37 H8          -3.6630     1.6720     2.5910 h1         1 74J       0.062367
     38 H9           7.9920     1.7010     0.6880 hn         1 74J       0.312500
     39 H10          8.0960     3.4150     0.3430 hn         1 74J       0.312500
     40 H11         -4.4240    -0.9690    -1.9240 ha         1 74J       0.118500
     41 H12         -5.9340     1.5320     1.2660 ha         1 74J       0.118500
     42 H13          7.0710    -0.2070     0.8430 h4         1 74J       0.036100
     43 H14         -4.3630    -1.1350     2.9770 hc         1 74J       0.083450
     44 H15         -6.0180    -0.7660     2.2880 hc         1 74J       0.083450
     45 H16         -5.6540    -2.4690     0.4770 hc         1 74J       0.083450
     46 H17         -4.0080    -2.8570     1.1770 hc         1 74J       0.083450
     47 H18          4.7080    -2.6950    -0.9310 hn         1 74J       0.516500
     48 H19          3.5900    -3.8840    -1.4800 hn         1 74J       0.516500
     49 C20         -2.9020     2.0050     1.8740 c3         1 74J       0.071900
@<TRIPOS>BOND
     1     1     2 ar  
     2     1     3 ar  
     3     1    30 1   
     4     2    19 ar  
     5     2    31 1   
     6     3    20 ar  
     7     3    32 1   
     8     4     8 ar  
     9     4    24 ar  
    10     4    33 1   
    11     5     6 2   
    12     5    17 1   
    13     5    34 1   
    14     6    13 1   
    15     6    21 1   
    16     7    14 1   
    17     7    19 ar  
    18     7    20 ar  
    19     8    11 1   
    20     8    15 ar  
    21     9    10 ar  
    22     9    15 ar  
    23     9    17 1   
    24    10    24 ar  
    25    10    28 1   
    26    11    16 2   
    27    11    26 1   
    28    12    14 1   
    29    12    26 2   
    30    12    27 1   
    31    13    18 1   
    32    13    29 2   
    33    14    22 1   
    34    14    23 1   
    35    16    27 1   
    36    17    25 1   
    37    18    38 1   
    38    18    39 1   
    39    19    40 1   
    40    20    41 1   
    41    21    25 2   
    42    21    42 1   
    43    22    23 1   
    44    22    43 1   
    45    22    44 1   
    46    23    45 1   
    47    23    46 1   
    48    27    49 1   
    49    28    47 1   
    50    28    48 1   
    51    35    49 1   
    52    36    49 1   
    53    37    49 1   
@<TRIPOS>SUBSTRUCTURE
     1 74J         1 TEMP              0 ****  ****    0 ROOT
