@<TRIPOS>MOLECULE
74K
   49    53     1     0     0
SMALL
bcc


@<TRIPOS>ATOM
      1 C1          -4.7860     1.4640    -1.7300 cx         1 74K      -0.103400
      2 C2          -4.2870     0.2540    -0.9920 cx         1 74K      -0.119000
      3 C3          -4.8210     0.1270    -2.3930 cx         1 74K      -0.103400
      4 N6           1.4800     3.2140     0.7390 nb         1 74K      -0.725000
      5 C7           2.6360     2.5650     0.7060 ca         1 74K       0.558900
      6 C8           2.6890     1.2280     0.2250 ca         1 74K       0.349500
      7 C11          3.9370     0.4820     0.0840 cc         1 74K      -0.341800
      8 C12         -0.8020     0.5290    -0.4000 cc         1 74K       0.487000
      9 C14         -2.8230     0.1570    -0.8100 cd         1 74K       0.458800
     10 C19         -4.9100     0.3560     1.4210 ca         1 74K      -0.115500
     11 C20         -5.6220    -0.0840     2.5260 ca         1 74K      -0.128500
     12 C21         -6.5130    -1.1440     2.4040 ca         1 74K      -0.122000
     13 C22         -6.6820    -1.7600     1.1730 ca         1 74K      -0.128500
     14 C24          4.0570    -0.8840     0.1370 cd         1 74K      -0.031300
     15 N25          5.3550    -1.1670    -0.1070 n          1 74K       0.072300
     16 N26          6.0870    -0.0690    -0.3280 nd         1 74K      -0.544800
     17 C27          5.2520     0.9320    -0.2140 cc         1 74K       0.344200
     18 N29          7.2240    -2.4710    -0.4380 nt         1 74K      -0.654000
     19 C4           0.4170     1.2460    -0.0360 ca         1 74K       0.226000
     20 C5           0.3850     2.5730     0.3630 ca         1 74K       0.369900
     21 N9           1.5800     0.6020    -0.1080 nb         1 74K      -0.601000
     22 N13         -2.0100     1.1300    -0.4580 nc         1 74K      -0.705000
     23 N15         -2.1200    -0.9770    -0.9450 na         1 74K      -0.016400
     24 N16         -0.8290    -0.7530    -0.6930 nd         1 74K      -0.492800
     25 C17         -2.5710    -2.2840    -1.3600 c3         1 74K       0.041600
     26 C18         -5.0780    -0.2540     0.1770 ca         1 74K      -0.058300
     27 C23         -5.9660    -1.3180     0.0660 ca         1 74K      -0.115500
     28 C28          5.9260    -2.4680    -0.1500 c          1 74K       0.705900
     29 O30          5.2230    -3.4310     0.0680 o          1 74K      -0.590100
     30 H1          -5.7210     1.8930    -1.3950 hc         1 74K       0.082950
     31 H2          -4.0520     2.1880    -2.0610 hc         1 74K       0.082950
     32 H3          -5.7800    -0.3540    -2.5300 hc         1 74K       0.082950
     33 H4          -4.1100    -0.0650    -3.1870 hc         1 74K       0.082950
     34 H5          -4.2200     1.1850     1.5190 ha         1 74K       0.136500
     35 H6          -5.4840     0.4030     3.4830 ha         1 74K       0.132500
     36 H7          -7.0740    -1.4860     3.2650 ha         1 74K       0.132000
     37 H8          -7.3710    -2.5880     1.0710 ha         1 74K       0.132500
     38 H9           3.3230    -1.6480     0.3300 h4         1 74K       0.210000
     39 H10          5.5990     1.9420    -0.3720 h4         1 74K       0.047100
     40 H11          7.7290    -1.6210    -0.6280 hn         1 74K       0.343000
     41 H12          7.7060    -3.3500    -0.5200 hn         1 74K       0.343000
     42 H13         -0.5450     3.1280     0.3950 h4         1 74K       0.047100
     43 H14          3.5690     4.0960     1.6050 hn         1 74K       0.418300
     44 H15          4.5090     2.7040     1.4990 hn         1 74K       0.418300
     45 H16         -2.3040    -2.4670    -2.4000 h1         1 74K       0.061367
     46 H17         -2.1100    -3.0410    -0.7310 h1         1 74K       0.061367
     47 H18         -3.6490    -2.3480    -1.2540 h1         1 74K       0.061367
     48 H19         -6.1060    -1.8100    -0.8890 ha         1 74K       0.136500
     49 N10          3.7460     3.2360     1.1110 nv         1 74K      -0.930500
@<TRIPOS>BOND
     1     1     2 1   
     2     1     3 1   
     3     1    30 1   
     4     1    31 1   
     5     2     3 1   
     6     2     9 1   
     7     2    26 1   
     8     3    32 1   
     9     3    33 1   
    10     4     5 ar  
    11     4    20 ar  
    12     5     6 ar  
    13     5    49 1   
    14     6     7 1   
    15     6    21 ar  
    16     7    14 2   
    17     7    17 1   
    18     8    19 1   
    19     8    22 1   
    20     8    24 2   
    21     9    22 2   
    22     9    23 1   
    23    10    11 ar  
    24    10    26 ar  
    25    10    34 1   
    26    11    12 ar  
    27    11    35 1   
    28    12    13 ar  
    29    12    36 1   
    30    13    27 ar  
    31    13    37 1   
    32    14    15 1   
    33    14    38 1   
    34    15    16 1   
    35    15    28 1   
    36    16    17 2   
    37    17    39 1   
    38    18    28 1   
    39    18    40 1   
    40    18    41 1   
    41    19    20 ar  
    42    19    21 ar  
    43    20    42 1   
    44    23    24 1   
    45    23    25 1   
    46    25    45 1   
    47    25    46 1   
    48    25    47 1   
    49    26    27 ar  
    50    27    48 1   
    51    28    29 2   
    52    43    49 1   
    53    44    49 1   
@<TRIPOS>SUBSTRUCTURE
     1 74K         1 TEMP              0 ****  ****    0 ROOT
