@<TRIPOS>MOLECULE
74K
   49    53     1     0     0
SMALL
No Charge or Current Charge


@<TRIPOS>ATOM
      1 C1          -4.8090     1.7030    -1.5660 cx         1 74K      -0.103400
      2 C2          -4.3240     0.3970    -0.9620 cx         1 74K      -0.119000
      3 C3          -4.9340     0.4220    -2.3510 cx         1 74K      -0.103400
      4 N6           1.4950     3.3240     0.3950 nb         1 74K      -0.725000
      5 C7           2.6540     2.6570     0.4110 ca         1 74K       0.558900
      6 C8           2.7710     1.2380     0.1380 ca         1 74K       0.349500
      7 C11          4.0510     0.5100     0.1280 cc         1 74K      -0.276500
      8 C12         -0.7930     0.4340    -0.4870 cc         1 74K       0.487000
      9 C14         -2.8600     0.1300    -0.8170 cd         1 74K       0.458800
     10 C19         -5.0580     0.4330     1.4490 ca         1 74K      -0.097500
     11 C20         -5.7370    -0.1280     2.5430 ca         1 74K      -0.110500
     12 C21         -6.4310    -1.3410     2.3930 ca         1 74K      -0.104000
     13 C22         -6.4450    -1.9900     1.1470 ca         1 74K      -0.110500
     14 C24          4.1480    -0.8360    -0.0600 cd         1 74K      -0.064000
     15 N25          5.4810    -1.2300    -0.0290 n          1 74K       0.123000
     16 N26          6.2620    -0.0640     0.1820 nd         1 74K      -0.544800
     17 C27          5.3900     0.9300     0.2660 cc         1 74K       0.278900
     18 N29          7.2500    -2.7790    -0.1360 nt         1 74K      -0.587000
     19 C4           0.4600     1.1720    -0.1750 ca         1 74K       0.226000
     20 C5           0.3980     2.5700     0.0970 ca         1 74K       0.369900
     21 N9           1.6610     0.5020    -0.1540 nb         1 74K      -0.601000
     22 N13         -1.9980     1.0820    -0.5180 nc         1 74K      -0.705000
     23 N15         -2.1640    -1.0610    -0.9660 na         1 74K      -0.045700
     24 N16         -0.8280    -0.8660    -0.7500 nd         1 74K      -0.492800
     25 C17         -2.7120    -2.3850    -1.3000 c3         1 74K       0.070900
     26 C18         -5.0670    -0.2110     0.1970 ca         1 74K      -0.058300
     27 C23         -5.7650    -1.4270     0.0520 ca         1 74K      -0.097500
     28 C28          5.9130    -2.5800    -0.1910 c          1 74K       0.638900
     29 O30          5.1580    -3.5260    -0.3710 o          1 74K      -0.590100
     30 H1          -5.7190     2.1400    -1.1640 hc         1 74K       0.082950
     31 H2          -4.0670     2.4260    -1.8960 hc         1 74K       0.082950
     32 H3          -5.9330     0.0140    -2.4860 hc         1 74K       0.082950
     33 H4          -4.2710     0.2850    -3.2020 hc         1 74K       0.082950
     34 H5          -4.5200     1.3710     1.5730 ha         1 74K       0.118500
     35 H6          -5.7250     0.3750     3.5070 ha         1 74K       0.114500
     36 H7          -6.9570    -1.7760     3.2390 ha         1 74K       0.114000
     37 H8          -6.9810    -2.9290     1.0290 ha         1 74K       0.114500
     38 H9           3.3840    -1.5910    -0.2180 h4         1 74K       0.192000
     39 H10          5.7660     1.9320     0.4160 h4         1 74K       0.047100
     40 H11          7.8590    -1.9870     0.0130 hn         1 74K       0.343000
     41 H12          7.6210    -3.7100    -0.2430 hn         1 74K       0.343000
     42 H13         -0.5490     3.1080     0.0810 h4         1 74K       0.047100
     43 H14          3.2830     4.4360     1.0580 hn         1 74K       0.473500
     44 H15          4.4270     3.1760     1.2700 hn         1 74K       0.473500
     45 H16         -3.4590    -2.2850    -2.0970 h1         1 74K       0.061367
     46 H17         -1.9080    -3.0480    -1.6420 h1         1 74K       0.061367
     47 H18         -3.1850    -2.8190    -0.4110 h1         1 74K       0.061367
     48 H19         -5.7820    -1.9400    -0.9070 ha         1 74K       0.118500
     49 N10          3.6310     3.5330     0.7540 nv         1 74K      -1.040900
@<TRIPOS>BOND
     1     1     2 1   
     2     1     3 1   
     3     1    30 1   
     4     1    31 1   
     5     2     3 1   
     6     2     9 1   
     7     2    26 1   
     8     3    32 1   
     9     3    33 1   
    10     4     5 ar  
    11     4    20 ar  
    12     5     6 ar  
    13     5    49 1   
    14     6     7 1   
    15     6    21 ar  
    16     7    14 2   
    17     7    17 1   
    18     8    19 1   
    19     8    22 1   
    20     8    24 2   
    21     9    22 2   
    22     9    23 1   
    23    10    11 ar  
    24    10    26 ar  
    25    10    34 1   
    26    11    12 ar  
    27    11    35 1   
    28    12    13 ar  
    29    12    36 1   
    30    13    27 ar  
    31    13    37 1   
    32    14    15 1   
    33    14    38 1   
    34    15    16 1   
    35    15    28 1   
    36    16    17 2   
    37    17    39 1   
    38    18    28 1   
    39    18    40 1   
    40    18    41 1   
    41    19    20 ar  
    42    19    21 ar  
    43    20    42 1   
    44    23    24 1   
    45    23    25 1   
    46    25    45 1   
    47    25    46 1   
    48    25    47 1   
    49    26    27 ar  
    50    27    48 1   
    51    28    29 2   
    52    43    49 1   
    53    44    49 1   
@<TRIPOS>SUBSTRUCTURE
     1 74K         1 TEMP              0 ****  ****    0 ROOT
