@<TRIPOS>MOLECULE
74L
   56    60     1     0     0
SMALL
abcg2


@<TRIPOS>ATOM
      1 C1          13.4580    -1.1260    24.3510 c3         1 74L       0.074900
      2 C3          13.5480    -3.5040    23.4930 cc         1 74L       0.457800
      3 N6          11.9270    -2.9420    24.8900 nc         1 74L      -0.541800
      4 C7          10.7780    -5.1000    25.0120 ca         1 74L       0.220000
      5 C8           9.8770    -4.6880    25.9910 ca         1 74L       0.367900
      6 C10          8.7950    -6.7020    25.9030 ca         1 74L       0.564900
      7 C11          9.7470    -7.1580    24.9450 ca         1 74L       0.337500
      8 C13          9.7250    -8.5100    24.3800 cc         1 74L      -0.257500
      9 C14          9.3240    -9.7440    24.9650 cc         1 74L       0.277900
     10 C22         11.8910   -12.9820    23.2180 c3         1 74L       0.182600
     11 C27         15.7020    -4.5250    22.6040 cx         1 74L      -0.099400
     12 C30         15.4630    -1.3920    19.4530 ca         1 74L      -0.107000
     13 C31         14.1840    -1.0240    19.0480 ca         1 74L      -0.108000
     14 C32         13.0930    -1.4150    19.8150 ca         1 74L      -0.107000
     15 C33         13.2800    -2.1610    20.9740 ca         1 74L      -0.106000
     16 N2          13.0270    -2.5060    24.2370 na         1 74L      -0.058700
     17 N4          12.8150    -4.5990    23.6530 nd         1 74L      -0.664000
     18 C5          11.8350    -4.2140    24.5170 cd         1 74L       0.498000
     19 N9           8.8970    -5.4740    26.4210 nb         1 74L      -0.722000
     20 N12         10.6970    -6.3390    24.5130 nb         1 74L      -0.590000
     21 N15          9.5060   -10.7630    24.1430 nd         1 74L      -0.505800
     22 N16         10.0020   -10.2030    23.0080 na         1 74L      -0.019400
     23 C17         10.1690    -8.8570    23.1200 cd         1 74L      -0.072000
     24 S18         10.5670   -11.2170    21.7430 s6         1 74L       1.341300
     25 O19         10.8410   -10.2980    20.6820 o          1 74L      -0.529000
     26 O20          9.5900   -12.2500    21.6020 o          1 74L      -0.529000
     27 N21         11.9500   -11.8600    22.2670 n3         1 74L      -0.767500
     28 C23         13.0770   -10.9380    22.4760 c3         1 74L       0.182600
     29 N24          7.7720    -7.4820    26.3560 nv         1 74L      -1.048900
     30 C25         14.7480    -3.3470    22.6400 cx         1 74L      -0.125000
     31 C26         16.0780    -3.3090    23.3830 cx         1 74L      -0.099400
     32 C28         14.5600    -2.5300    21.3960 ca         1 74L      -0.046300
     33 C29         15.6500    -2.1350    20.6110 ca         1 74L      -0.106000
     34 H1          13.4170    -0.8290    25.3970 h1         1 74L       0.062033
     35 H2          14.4780    -1.0460    23.9870 h1         1 74L       0.062033
     36 H3          12.8100    -0.4800    23.7580 h1         1 74L       0.062033
     37 H4           9.9500    -3.7020    26.4320 h4         1 74L       0.043100
     38 H5           8.9350    -9.9240    25.9550 h4         1 74L       0.044100
     39 H6          11.0600   -13.6340    22.9690 h1         1 74L       0.061033
     40 H7          12.8230   -13.5350    23.1190 h1         1 74L       0.061033
     41 H8          11.7880   -12.6230    24.2440 h1         1 74L       0.061033
     42 H9          15.4080    -5.4130    23.1450 hc         1 74L       0.083950
     43 H10         16.2000    -4.7020    21.6600 hc         1 74L       0.083950
     44 H11         16.3240    -1.0980    18.8650 ha         1 74L       0.114500
     45 H12         14.0400    -0.4410    18.1470 ha         1 74L       0.115000
     46 H13         12.0890    -1.1410    19.5140 ha         1 74L       0.114500
     47 H14         12.4140    -2.4570    21.5510 ha         1 74L       0.115500
     48 H15         10.5660    -8.2630    22.3170 h4         1 74L       0.192000
     49 H16         13.9900   -11.5300    22.4590 h1         1 74L       0.061033
     50 H17         13.1130   -10.2060    21.6740 h1         1 74L       0.061033
     51 H18         12.9940   -10.4290    23.4400 h1         1 74L       0.061033
     52 H19          7.0530    -6.9950    26.8690 hn         1 74L       0.481000
     53 H20          7.4390    -8.2310    25.7710 hn         1 74L       0.481000
     54 H21         16.8430    -2.6520    22.9980 hc         1 74L       0.083950
     55 H22         16.0270    -3.3640    24.4630 hc         1 74L       0.083950
     56 H23         16.6570    -2.4070    20.8980 ha         1 74L       0.115500
@<TRIPOS>BOND
     1     1    16 1   
     2     1    34 1   
     3     1    35 1   
     4     1    36 1   
     5     2    16 1   
     6     2    17 2   
     7     2    30 1   
     8     3    16 1   
     9     3    18 2   
    10     4     5 ar  
    11     4    18 1   
    12     4    20 ar  
    13     5    19 ar  
    14     5    37 1   
    15     6     7 ar  
    16     6    19 ar  
    17     6    29 1   
    18     7     8 1   
    19     7    20 ar  
    20     8     9 1   
    21     8    23 2   
    22     9    21 2   
    23     9    38 1   
    24    10    27 1   
    25    10    39 1   
    26    10    40 1   
    27    10    41 1   
    28    11    30 1   
    29    11    31 1   
    30    11    42 1   
    31    11    43 1   
    32    12    13 ar  
    33    12    33 ar  
    34    12    44 1   
    35    13    14 ar  
    36    13    45 1   
    37    14    15 ar  
    38    14    46 1   
    39    15    32 ar  
    40    15    47 1   
    41    17    18 1   
    42    21    22 1   
    43    22    23 1   
    44    22    24 1   
    45    23    48 1   
    46    24    25 2   
    47    24    26 2   
    48    24    27 1   
    49    27    28 1   
    50    28    49 1   
    51    28    50 1   
    52    28    51 1   
    53    29    52 1   
    54    29    53 1   
    55    30    31 1   
    56    30    32 1   
    57    31    54 1   
    58    31    55 1   
    59    32    33 ar  
    60    33    56 1   
@<TRIPOS>SUBSTRUCTURE
     1 74L         1 TEMP              0 ****  ****    0 ROOT
