@<TRIPOS>MOLECULE
74L
   56    60     1     0     0
SMALL
No Charge or Current Charge


@<TRIPOS>ATOM
      1 C1          13.8660    -1.2990    24.4980 c3         1 74L       0.074900
      2 C3          13.6910    -3.5740    23.3360 cc         1 74L       0.457800
      3 N6          12.2280    -3.0670    24.9930 nc         1 74L      -0.541800
      4 C7          10.9280    -5.1760    24.9780 ca         1 74L       0.220000
      5 C8          10.0760    -4.7360    26.0310 ca         1 74L       0.367900
      6 C10          8.9180    -6.6980    25.9660 ca         1 74L       0.564900
      7 C11          9.7630    -7.1930    24.8960 ca         1 74L       0.337500
      8 C13          9.6260    -8.5330    24.2950 cc         1 74L      -0.257500
      9 C14          8.8150    -9.6230    24.6390 cc         1 74L       0.277900
     10 C22         11.6260   -12.8510    23.6380 c3         1 74L       0.182600
     11 C27         15.6390    -4.6770    22.0510 cx         1 74L      -0.099400
     12 C30         14.7330    -0.2580    20.2570 ca         1 74L      -0.107000
     13 C31         13.8290    -0.6250    19.2460 ca         1 74L      -0.108000
     14 C32         13.2520    -1.9060    19.2530 ca         1 74L      -0.107000
     15 C33         13.5790    -2.8180    20.2710 ca         1 74L      -0.106000
     16 N2          13.2870    -2.6320    24.2630 na         1 74L      -0.058700
     17 N4          12.8970    -4.6200    23.4730 nd         1 74L      -0.664000
     18 C5          12.0150    -4.2760    24.4880 cd         1 74L       0.498000
     19 N9           9.0600    -5.4950    26.5310 nb         1 74L      -0.722000
     20 N12         10.7700    -6.4140    24.4060 nb         1 74L      -0.590000
     21 N15          8.9850   -10.6720    23.8640 nd         1 74L      -0.505800
     22 N16          9.9780   -10.2480    22.9510 na         1 74L      -0.019400
     23 C17         10.3750    -8.9270    23.2210 cd         1 74L      -0.072000
     24 S18         10.6050   -11.2850    21.6790 s6         1 74L       1.341300
     25 O19         11.1680   -10.4380    20.6170 o          1 74L      -0.529000
     26 O20          9.6360   -12.3480    21.3710 o          1 74L      -0.529000
     27 N21         11.9620   -12.0780    22.4200 n3         1 74L      -0.767500
     28 C23         13.1520   -11.2190    22.6170 c3         1 74L       0.182600
     29 N24          7.8520    -7.2990    26.5480 nv         1 74L      -1.048900
     30 C25         14.8150    -3.4450    22.3750 cx         1 74L      -0.125000
     31 C26         16.2270    -3.5870    22.9120 cx         1 74L      -0.099400
     32 C28         14.4850    -2.4580    21.2880 ca         1 74L      -0.046300
     33 C29         15.0600    -1.1710    21.2740 ca         1 74L      -0.106000
     34 H1          13.5330    -0.9090    25.4670 h1         1 74L       0.062033
     35 H2          14.9610    -1.3650    24.4960 h1         1 74L       0.062033
     36 H3          13.5420    -0.6150    23.7040 h1         1 74L       0.062033
     37 H4          10.2020    -3.7540    26.4850 h4         1 74L       0.043100
     38 H5           8.1010    -9.6980    25.4470 h4         1 74L       0.044100
     39 H6          10.8080   -13.5590    23.4480 h1         1 74L       0.061033
     40 H7          12.4920   -13.4360    23.9760 h1         1 74L       0.061033
     41 H8          11.3250   -12.1920    24.4630 h1         1 74L       0.061033
     42 H9          15.3790    -5.6160    22.5330 hc         1 74L       0.083950
     43 H10         16.0200    -4.7800    21.0370 hc         1 74L       0.083950
     44 H11         15.1790     0.7340    20.2530 ha         1 74L       0.114500
     45 H12         13.5750     0.0820    18.4590 ha         1 74L       0.115000
     46 H13         12.5520    -2.1910    18.4720 ha         1 74L       0.114500
     47 H14         13.1280    -3.8080    20.2710 ha         1 74L       0.115500
     48 H15         11.1300    -8.4030    22.6410 h4         1 74L       0.192000
     49 H16         13.9910   -11.8050    23.0140 h1         1 74L       0.061033
     50 H17         13.4860   -10.7750    21.6700 h1         1 74L       0.061033
     51 H18         12.9450   -10.4050    23.3250 h1         1 74L       0.061033
     52 H19          7.3250    -6.6850    27.1590 hn         1 74L       0.481000
     53 H20          7.2930    -7.9230    25.9770 hn         1 74L       0.481000
     54 H21         17.0130    -2.9760    22.4740 hc         1 74L       0.083950
     55 H22         16.3540    -3.7950    23.9720 hc         1 74L       0.083950
     56 H23         15.7590    -0.8740    22.0520 ha         1 74L       0.115500
@<TRIPOS>BOND
     1     1    16 1   
     2     1    34 1   
     3     1    35 1   
     4     1    36 1   
     5     2    16 1   
     6     2    17 2   
     7     2    30 1   
     8     3    16 1   
     9     3    18 2   
    10     4     5 ar  
    11     4    18 1   
    12     4    20 ar  
    13     5    19 ar  
    14     5    37 1   
    15     6     7 ar  
    16     6    19 ar  
    17     6    29 1   
    18     7     8 1   
    19     7    20 ar  
    20     8     9 1   
    21     8    23 2   
    22     9    21 2   
    23     9    38 1   
    24    10    27 1   
    25    10    39 1   
    26    10    40 1   
    27    10    41 1   
    28    11    30 1   
    29    11    31 1   
    30    11    42 1   
    31    11    43 1   
    32    12    13 ar  
    33    12    33 ar  
    34    12    44 1   
    35    13    14 ar  
    36    13    45 1   
    37    14    15 ar  
    38    14    46 1   
    39    15    32 ar  
    40    15    47 1   
    41    17    18 1   
    42    21    22 1   
    43    22    23 1   
    44    22    24 1   
    45    23    48 1   
    46    24    25 2   
    47    24    26 2   
    48    24    27 1   
    49    27    28 1   
    50    28    49 1   
    51    28    50 1   
    52    28    51 1   
    53    29    52 1   
    54    29    53 1   
    55    30    31 1   
    56    30    32 1   
    57    31    54 1   
    58    31    55 1   
    59    32    33 ar  
    60    33    56 1   
@<TRIPOS>SUBSTRUCTURE
     1 74L         1 TEMP              0 ****  ****    0 ROOT
