@<TRIPOS>MOLECULE
74M
   59    60     1     0     0
SMALL
bcc


@<TRIPOS>ATOM
      1 C2           3.2760     0.6690     0.9830 cx         1 74M      -0.015900
      2 O1           3.4490     2.0590     1.0710 op         1 74M      -0.313600
      3 C3           2.5740     1.5930     0.0800 cx         1 74M      -0.015900
      4 C4           1.1140     1.8490     0.3310 c          1 74M       0.680100
      5 O4           0.6850     2.0820     1.4460 o          1 74M      -0.581100
      6 N1           0.3560     1.7920    -0.7740 ns         1 74M      -0.544900
      7 C5          -1.0800     1.8430    -0.7120 c3         1 74M       0.043700
      8 C6          -1.6240     0.5260    -0.1440 c          1 74M       0.664100
      9 O5          -0.9150    -0.4600    -0.0060 o          1 74M      -0.604100
     10 C14         -1.6820     2.2890    -2.0640 c3         1 74M      -0.061700
     11 C16         -1.1450     1.5580    -3.3000 c3         1 74M      -0.075400
     12 C15         -1.4970     3.7960    -2.2290 c3         1 74M      -0.093100
     13 C17         -1.3360     0.0480    -3.3190 c3         1 74M      -0.103100
     14 N2          -2.9090     0.5130     0.2520 n          1 74M      -0.470800
     15 C7          -3.4250    -0.6790     0.9020 c5         1 74M       0.048700
     16 C8          -3.3840    -1.8770    -0.0220 c          1 74M       0.646100
     17 O6          -3.6110    -1.8320    -1.2030 o          1 74M      -0.532000
     18 C20         -4.8700    -0.3020     1.2630 c5         1 74M      -0.084400
     19 C19         -4.8030     1.2140     1.4110 c5         1 74M      -0.097400
     20 C18         -3.8630     1.6170     0.2850 c5         1 74M       0.108000
     21 O7          -3.1450    -2.9910     0.6490 os         1 74M      -0.410900
     22 C9          -3.1650    -4.2180    -0.0820 c3         1 74M       0.129700
     23 N3           4.4870    -1.3790     0.8010 ns         1 74M      -0.566900
     24 C11          5.5170    -2.2970     0.3530 c3         1 74M       0.103000
     25 C12          5.1810    -3.7230     0.7570 c3         1 74M      -0.095400
     26 C13          6.2520    -4.7000     0.2980 c3         1 74M      -0.088100
     27 C10          4.4530    -0.0950     0.4380 c          1 74M       0.673100
     28 O2           5.2760     0.4350    -0.2920 o          1 74M      -0.587100
     29 H2           2.7140     0.2120     1.7960 h1         1 74M       0.111700
     30 H3           2.9280     1.6860    -0.9460 h1         1 74M       0.111700
     31 HN1          0.7870     1.4850    -1.6320 hn         1 74M       0.326500
     32 H5          -1.3370     2.6190     0.0160 h1         1 74M       0.083700
     33 H14         -2.7560     2.0890    -2.0180 hc         1 74M       0.059700
     34 H161        -1.6620     1.9900    -4.1610 hc         1 74M       0.037200
     35 H162        -0.0890     1.8050    -3.4580 hc         1 74M       0.037200
     36 H151        -0.4400     4.0670    -2.2660 hc         1 74M       0.040033
     37 H152        -1.9590     4.1390    -3.1550 hc         1 74M       0.040033
     38 H153        -1.9540     4.3480    -1.4060 hc         1 74M       0.040033
     39 H171        -1.0990    -0.3500    -4.3060 hc         1 74M       0.045033
     40 H172        -0.6970    -0.4620    -2.6010 hc         1 74M       0.045033
     41 H173        -2.3660    -0.2250    -3.0880 hc         1 74M       0.045033
     42 H7          -2.8520    -0.8950     1.8080 h1         1 74M       0.091700
     43 H201        -5.2030    -0.8140     2.1640 hc         1 74M       0.064200
     44 H202        -5.5520    -0.5650     0.4520 hc         1 74M       0.064200
     45 H191        -4.3730     1.4860     2.3760 hc         1 74M       0.060700
     46 H192        -5.7780     1.6910     1.3250 hc         1 74M       0.060700
     47 H181        -3.3720     2.5710     0.4710 h1         1 74M       0.053700
     48 H182        -4.4050     1.6910    -0.6620 h1         1 74M       0.053700
     49 H91         -4.1430    -4.3980    -0.5270 h1         1 74M       0.048700
     50 H92         -2.4070    -4.2270    -0.8640 h1         1 74M       0.048700
     51 H93         -2.9480    -5.0000     0.6400 h1         1 74M       0.048700
     52 HN3          3.7890    -1.7270     1.4400 hn         1 74M       0.319500
     53 H111         6.4840    -2.0070     0.7760 h1         1 74M       0.053200
     54 H112         5.6120    -2.2300    -0.7330 h1         1 74M       0.053200
     55 H121         4.2150    -4.0030     0.3300 hc         1 74M       0.043700
     56 H122         5.0730    -3.7790     1.8440 hc         1 74M       0.043700
     57 H131         6.3510    -4.6970    -0.7890 hc         1 74M       0.037033
     58 H132         7.2260    -4.4480     0.7200 hc         1 74M       0.037033
     59 H133         6.0110    -5.7180     0.6050 hc         1 74M       0.037033
@<TRIPOS>BOND
     1     1     2 1   
     2     1     3 1   
     3     1    27 1   
     4     1    29 1   
     5     2     3 1   
     6     3     4 1   
     7     3    30 1   
     8     4     5 2   
     9     4     6 1   
    10     6     7 1   
    11     6    31 1   
    12     7     8 1   
    13     7    10 1   
    14     7    32 1   
    15     8     9 2   
    16     8    14 1   
    17    10    11 1   
    18    10    12 1   
    19    10    33 1   
    20    11    13 1   
    21    11    34 1   
    22    11    35 1   
    23    12    36 1   
    24    12    37 1   
    25    12    38 1   
    26    13    39 1   
    27    13    40 1   
    28    13    41 1   
    29    14    15 1   
    30    14    20 1   
    31    15    16 1   
    32    15    18 1   
    33    15    42 1   
    34    16    17 2   
    35    16    21 1   
    36    18    19 1   
    37    18    43 1   
    38    18    44 1   
    39    19    20 1   
    40    19    45 1   
    41    19    46 1   
    42    20    47 1   
    43    20    48 1   
    44    21    22 1   
    45    22    49 1   
    46    22    50 1   
    47    22    51 1   
    48    23    24 1   
    49    23    27 1   
    50    23    52 1   
    51    24    25 1   
    52    24    53 1   
    53    24    54 1   
    54    25    26 1   
    55    25    55 1   
    56    25    56 1   
    57    26    57 1   
    58    26    58 1   
    59    26    59 1   
    60    27    28 2   
@<TRIPOS>SUBSTRUCTURE
     1 74M         1 TEMP              0 ****  ****    0 ROOT
