@<TRIPOS>MOLECULE
74M
   59    60     1     0     0
SMALL
No Charge or Current Charge


@<TRIPOS>ATOM
      1 C2           3.1580     0.1150     0.6690 cx         1 74M       0.007300
      2 O1           3.7230     1.4220     0.9600 op         1 74M      -0.360000
      3 C3           2.8240     1.3170    -0.1790 cx         1 74M       0.007300
      4 C4           1.4440     1.9300    -0.0450 c          1 74M       0.613100
      5 O4           1.2590     3.0790     0.3360 o          1 74M      -0.581100
      6 N1           0.4110     1.0840    -0.3870 ns         1 74M      -0.477900
      7 C5          -1.0300     1.4360    -0.3720 c3         1 74M       0.043700
      8 C6          -1.8810     0.2160     0.1160 c          1 74M       0.597100
      9 O5          -1.3900    -0.9040     0.2200 o          1 74M      -0.604100
     10 C14         -1.5220     2.0280    -1.7410 c3         1 74M      -0.061700
     11 C16         -0.8890     1.3850    -3.0110 c3         1 74M      -0.075400
     12 C15         -1.3580     3.5670    -1.7770 c3         1 74M      -0.093100
     13 C17         -1.1660    -0.1220    -3.1880 c3         1 74M      -0.103100
     14 N2          -3.2490     0.4130     0.4170 n          1 74M      -0.403800
     15 C7          -4.1610    -0.7170     0.7570 c5         1 74M       0.048700
     16 C8          -4.3070    -1.8330    -0.3210 c          1 74M       0.597100
     17 O6          -3.9860    -1.7540    -1.5020 o          1 74M      -0.483000
     18 C20         -5.5220     0.0180     0.9120 c5         1 74M      -0.084400
     19 C19         -5.0800     1.3460     1.5730 c5         1 74M      -0.097400
     20 C18         -3.8420     1.7360     0.7240 c5         1 74M       0.108000
     21 O7          -4.8740    -2.9510     0.2400 os         1 74M      -0.434100
     22 C9          -5.0960    -4.0960    -0.6040 c3         1 74M       0.152900
     23 N3           5.3850    -0.8600     0.5070 ns         1 74M      -0.499900
     24 C11          6.4550    -1.7740     0.1030 c3         1 74M       0.103000
     25 C12          6.3840    -3.1210     0.8530 c3         1 74M      -0.095400
     26 C13          7.5160    -4.0880     0.4580 c3         1 74M      -0.088100
     27 C10          4.0770    -0.9340     0.0790 c          1 74M       0.606100
     28 O2           3.6890    -1.7770    -0.7180 o          1 74M      -0.587100
     29 H2           2.4300    -0.2460     1.3940 h1         1 74M       0.111700
     30 H3           3.2970     1.4280    -1.1530 h1         1 74M       0.111700
     31 HN1          0.6640     0.1410    -0.6600 hn         1 74M       0.326500
     32 H5          -1.1720     2.2000     0.4020 h1         1 74M       0.083700
     33 H14         -2.6010     1.8490    -1.8150 hc         1 74M       0.059700
     34 H161        -1.2860     1.9000    -3.8950 hc         1 74M       0.037200
     35 H162         0.1940     1.5590    -3.0230 hc         1 74M       0.037200
     36 H151        -0.3000     3.8500    -1.7780 hc         1 74M       0.040033
     37 H152        -1.8210     3.9840    -2.6800 hc         1 74M       0.040033
     38 H153        -1.8410     4.0330    -0.9090 hc         1 74M       0.040033
     39 H171        -0.7810    -0.4660    -4.1550 hc         1 74M       0.045033
     40 H172        -0.6780    -0.7130    -2.4060 hc         1 74M       0.045033
     41 H173        -2.2430    -0.3250    -3.1610 hc         1 74M       0.045033
     42 H7          -3.8520    -1.1910     1.6990 h1         1 74M       0.091700
     43 H201        -6.2370    -0.5450     1.5240 hc         1 74M       0.064200
     44 H202        -5.9950     0.2020    -0.0600 hc         1 74M       0.064200
     45 H191        -4.8030     1.1900     2.6220 hc         1 74M       0.060700
     46 H192        -5.8610     2.1140     1.5510 hc         1 74M       0.060700
     47 H181        -3.1630     2.3900     1.2860 h1         1 74M       0.053700
     48 H182        -4.1440     2.2520    -0.1970 h1         1 74M       0.053700
     49 H91         -5.7710    -3.8460    -1.4330 h1         1 74M       0.048700
     50 H92         -4.1500    -4.4620    -1.0240 h1         1 74M       0.048700
     51 H93         -5.5510    -4.9120    -0.0290 h1         1 74M       0.048700
     52 HN3          5.6020    -0.1070     1.1510 hn         1 74M       0.319500
     53 H111         7.4200    -1.2930     0.3090 h1         1 74M       0.053200
     54 H112         6.3890    -1.9490    -0.9790 h1         1 74M       0.053200
     55 H121         5.4190    -3.6010     0.6520 hc         1 74M       0.043700
     56 H122         6.4320    -2.9360     1.9330 hc         1 74M       0.043700
     57 H131         7.4730    -4.3180    -0.6140 hc         1 74M       0.037033
     58 H132         8.4960    -3.6500     0.6800 hc         1 74M       0.037033
     59 H133         7.4260    -5.0290     1.0140 hc         1 74M       0.037033
@<TRIPOS>BOND
     1     1     2 1   
     2     1     3 1   
     3     1    27 1   
     4     1    29 1   
     5     2     3 1   
     6     3     4 1   
     7     3    30 1   
     8     4     5 2   
     9     4     6 1   
    10     6     7 1   
    11     6    31 1   
    12     7     8 1   
    13     7    10 1   
    14     7    32 1   
    15     8     9 2   
    16     8    14 1   
    17    10    11 1   
    18    10    12 1   
    19    10    33 1   
    20    11    13 1   
    21    11    34 1   
    22    11    35 1   
    23    12    36 1   
    24    12    37 1   
    25    12    38 1   
    26    13    39 1   
    27    13    40 1   
    28    13    41 1   
    29    14    15 1   
    30    14    20 1   
    31    15    16 1   
    32    15    18 1   
    33    15    42 1   
    34    16    17 2   
    35    16    21 1   
    36    18    19 1   
    37    18    43 1   
    38    18    44 1   
    39    19    20 1   
    40    19    45 1   
    41    19    46 1   
    42    20    47 1   
    43    20    48 1   
    44    21    22 1   
    45    22    49 1   
    46    22    50 1   
    47    22    51 1   
    48    23    24 1   
    49    23    27 1   
    50    23    52 1   
    51    24    25 1   
    52    24    53 1   
    53    24    54 1   
    54    25    26 1   
    55    25    55 1   
    56    25    56 1   
    57    26    57 1   
    58    26    58 1   
    59    26    59 1   
    60    27    28 2   
@<TRIPOS>SUBSTRUCTURE
     1 74M         1 TEMP              0 ****  ****    0 ROOT
