@<TRIPOS>MOLECULE
74N
   52    56     1     0     0
SMALL
No Charge or Current Charge


@<TRIPOS>ATOM
      1 C1          -3.1110     2.2970    -1.3300 c3         1 74N       0.072900
      2 C3          -3.2660    -0.1970    -0.7760 cc         1 74N       0.460800
      3 N6          -1.2350     0.8080    -0.7680 nc         1 74N      -0.494800
      4 C7           0.1270    -1.1760    -0.1540 ca         1 74N       0.214000
      5 C8           0.1090    -2.5630     0.1680 ca         1 74N       0.382900
      6 C10          2.3710    -2.5700     0.4400 ca         1 74N       0.575900
      7 C11          2.4440    -1.1590     0.1040 cp         1 74N       0.287500
      8 C13          3.7240    -0.3670     0.0700 cp         1 74N      -0.114500
      9 C14          4.9280    -0.9190    -0.4360 ca         1 74N      -0.101000
     10 C15          6.1170    -0.1700    -0.4690 ca         1 74N      -0.077500
     11 C16          6.1490     1.1620    -0.0030 ca         1 74N      -0.148600
     12 C19          7.4470     1.9420    -0.0520 c          1 74N       0.616700
     13 C24         -5.3150    -0.4460    -2.3100 cx         1 74N      -0.101900
     14 C27         -6.1720     1.4840     0.0180 ca         1 74N      -0.097500
     15 C30         -6.1240     0.3130     2.5720 ca         1 74N      -0.111000
     16 C31         -5.4500    -0.3010     1.5030 ca         1 74N      -0.097500
     17 N2          -2.5670     0.9780    -0.9660 na         1 74N      -0.046700
     18 N4          -2.3830    -1.1300    -0.4630 nd         1 74N      -0.705000
     19 C5          -1.1580    -0.4830    -0.4650 cd         1 74N       0.489000
     20 N9           1.2340    -3.2720     0.4760 nb         1 74N      -0.731000
     21 N12          1.3040    -0.4680    -0.1800 nb         1 74N      -0.586000
     22 C17          4.9510     1.7280     0.4920 ca         1 74N      -0.077500
     23 C18          3.7640     0.9770     0.5220 ca         1 74N      -0.101000
     24 O20          8.4870     1.4670    -0.4800 o          1 74N      -0.606100
     25 N21          7.4490     3.2160     0.3970 nt         1 74N      -0.602000
     26 N22          3.3820    -3.3860     0.8180 nv         1 74N      -1.048900
     27 C23         -4.7320    -0.3880    -0.9100 cx         1 74N      -0.122000
     28 C25         -5.2450    -1.7000    -1.4750 cx         1 74N      -0.101900
     29 C26         -5.4690     0.2790     0.2200 ca         1 74N      -0.059300
     30 C28         -6.8460     2.0990     1.0870 ca         1 74N      -0.111000
     31 C29         -6.8230     1.5140     2.3650 ca         1 74N      -0.104000
     32 H1          -2.3060     2.9510    -1.6880 h1         1 74N       0.061033
     33 H2          -3.8580     2.1820    -2.1250 h1         1 74N       0.061033
     34 H3          -3.5830     2.7530    -0.4520 h1         1 74N       0.061033
     35 H4          -0.8250    -3.1230     0.1910 h4         1 74N       0.048100
     36 H5           4.9420    -1.9330    -0.8290 ha         1 74N       0.130500
     37 H6           7.0190    -0.6330    -0.8670 ha         1 74N       0.124500
     38 H7          -6.2990    -0.0150    -2.4820 hc         1 74N       0.083450
     39 H8          -4.6330    -0.3630    -3.1530 hc         1 74N       0.083450
     40 H9          -6.1970     1.9480    -0.9650 ha         1 74N       0.119000
     41 H10         -6.1040    -0.1410     3.5600 ha         1 74N       0.114500
     42 H11         -4.9090    -1.2310     1.6710 ha         1 74N       0.119000
     43 H12          4.9210     2.7510     0.8570 ha         1 74N       0.124500
     44 H13          2.8600     1.4420     0.9110 ha         1 74N       0.130500
     45 H14          6.6030     3.6310     0.7550 hn         1 74N       0.314000
     46 H15          8.3070     3.7450     0.3700 hn         1 74N       0.314000
     47 H16          4.2060    -2.9530     1.2220 hn         1 74N       0.483500
     48 H17          3.0920    -4.2670     1.2270 hn         1 74N       0.483500
     49 H18         -6.1770    -2.0930    -1.0770 hc         1 74N       0.083450
     50 H19         -4.5210    -2.4580    -1.7630 hc         1 74N       0.083450
     51 H20         -7.3870     3.0290     0.9260 ha         1 74N       0.114500
     52 H21         -7.3450     1.9910     3.1920 ha         1 74N       0.114000
@<TRIPOS>BOND
     1     1    17 1   
     2     1    32 1   
     3     1    33 1   
     4     1    34 1   
     5     2    17 1   
     6     2    18 2   
     7     2    27 1   
     8     3    17 1   
     9     3    19 2   
    10     4     5 ar  
    11     4    19 1   
    12     4    21 ar  
    13     5    20 ar  
    14     5    35 1   
    15     6     7 ar  
    16     6    20 ar  
    17     6    26 1   
    18     7     8 1   
    19     7    21 ar  
    20     8     9 ar  
    21     8    23 ar  
    22     9    10 ar  
    23     9    36 1   
    24    10    11 ar  
    25    10    37 1   
    26    11    12 1   
    27    11    22 ar  
    28    12    24 2   
    29    12    25 1   
    30    13    27 1   
    31    13    28 1   
    32    13    38 1   
    33    13    39 1   
    34    14    29 ar  
    35    14    30 ar  
    36    14    40 1   
    37    15    16 ar  
    38    15    31 ar  
    39    15    41 1   
    40    16    29 ar  
    41    16    42 1   
    42    18    19 1   
    43    22    23 ar  
    44    22    43 1   
    45    23    44 1   
    46    25    45 1   
    47    25    46 1   
    48    26    47 1   
    49    26    48 1   
    50    27    28 1   
    51    27    29 1   
    52    28    49 1   
    53    28    50 1   
    54    30    31 ar  
    55    30    51 1   
    56    31    52 1   
@<TRIPOS>SUBSTRUCTURE
     1 74N         1 TEMP              0 ****  ****    0 ROOT
