@<TRIPOS>MOLECULE
74N
   52    56     1     0     0
SMALL
abcg2


@<TRIPOS>ATOM
      1 C1          -2.9040     2.2950    -1.2910 c3         1 74N       0.072900
      2 C3          -3.1440    -0.1630    -0.8180 cc         1 74N       0.460800
      3 N6          -1.1490     0.7440    -0.7110 nc         1 74N      -0.494800
      4 C7           0.1020    -1.2640    -0.0930 ca         1 74N       0.214000
      5 C8           0.0830    -2.6160     0.2170 ca         1 74N       0.382900
      6 C10          2.3310    -2.6070     0.5860 ca         1 74N       0.575900
      7 C11          2.3700    -1.2350     0.2090 cp         1 74N       0.287500
      8 C13          3.6200    -0.4490     0.1650 cp         1 74N      -0.114500
      9 C14          4.7830    -0.9470    -0.4230 ca         1 74N      -0.101000
     10 C15          5.9290    -0.1730    -0.4820 ca         1 74N      -0.077500
     11 C16          5.9420     1.1190     0.0340 ca         1 74N      -0.148600
     12 C19          7.2180     1.8980    -0.0420 c          1 74N       0.616700
     13 C24         -5.1680    -0.1950    -2.3710 cx         1 74N      -0.101900
     14 C27         -6.2300     1.4190     0.0290 ca         1 74N      -0.097500
     15 C30         -5.8960     0.2840     2.5380 ca         1 74N      -0.111000
     16 C31         -5.2120    -0.2260     1.4460 ca         1 74N      -0.097500
     17 N2          -2.4410     0.9700    -0.9570 na         1 74N      -0.046700
     18 N4          -2.3290    -1.1410    -0.4850 nd         1 74N      -0.705000
     19 C5          -1.1200    -0.5410    -0.4310 cd         1 74N       0.489000
     20 N9           1.1790    -3.2690     0.5630 nb         1 74N      -0.731000
     21 N12          1.2580    -0.6020    -0.0920 nb         1 74N      -0.586000
     22 C17          4.7810     1.6180     0.6220 ca         1 74N      -0.077500
     23 C18          3.6340     0.8460     0.6820 ca         1 74N      -0.101000
     24 O20          8.2910     1.3300    -0.1930 o          1 74N      -0.606100
     25 N21          7.1100     3.2300     0.0680 nt         1 74N      -0.602000
     26 N22          3.4340    -3.2960     0.9620 nv         1 74N      -1.048900
     27 C23         -4.6120    -0.2510    -0.9730 cx         1 74N      -0.122000
     28 C25         -5.1380    -1.4920    -1.6340 cx         1 74N      -0.101900
     29 C26         -5.3760     0.3330     0.1780 ca         1 74N      -0.059300
     30 C28         -6.9200     1.9310     1.1230 ca         1 74N      -0.111000
     31 C29         -6.7560     1.3650     2.3780 ca         1 74N      -0.104000
     32 H1          -2.2570     2.7230    -2.0520 h1         1 74N       0.061033
     33 H2          -3.9150     2.2350    -1.6810 h1         1 74N       0.061033
     34 H3          -2.8990     2.9360    -0.4110 h1         1 74N       0.061033
     35 H4          -0.8410    -3.1820     0.1990 h4         1 74N       0.048100
     36 H5           4.7950    -1.9370    -0.8610 ha         1 74N       0.130500
     37 H6           6.8180    -0.5780    -0.9470 ha         1 74N       0.124500
     38 H7          -6.1240     0.2910    -2.5180 hc         1 74N       0.083450
     39 H8          -4.4690    -0.0520    -3.1850 hc         1 74N       0.083450
     40 H9          -6.3650     1.8740    -0.9450 ha         1 74N       0.119000
     41 H10         -5.7630    -0.1650     3.5140 ha         1 74N       0.114500
     42 H11         -4.5450    -1.0710     1.5730 ha         1 74N       0.119000
     43 H12          4.7580     2.6060     1.0660 ha         1 74N       0.124500
     44 H13          2.7430     1.2470     1.1460 ha         1 74N       0.130500
     45 H14          6.2260     3.7070     0.0520 hn         1 74N       0.314000
     46 H15          7.9350     3.8030    -0.0050 hn         1 74N       0.314000
     47 H16          4.2340    -2.7930     1.3070 hn         1 74N       0.483500
     48 H17          3.2700    -4.1820     1.4140 hn         1 74N       0.483500
     49 H18         -6.0740    -1.8880    -1.2600 hc         1 74N       0.083450
     50 H19         -4.4200    -2.2440    -1.9350 hc         1 74N       0.083450
     51 H20         -7.5840     2.7750     0.9910 ha         1 74N       0.114500
     52 H21         -7.2960     1.7610     3.2280 ha         1 74N       0.114000
@<TRIPOS>BOND
     1     1    17 1   
     2     1    32 1   
     3     1    33 1   
     4     1    34 1   
     5     2    17 1   
     6     2    18 2   
     7     2    27 1   
     8     3    17 1   
     9     3    19 2   
    10     4     5 ar  
    11     4    19 1   
    12     4    21 ar  
    13     5    20 ar  
    14     5    35 1   
    15     6     7 ar  
    16     6    20 ar  
    17     6    26 1   
    18     7     8 1   
    19     7    21 ar  
    20     8     9 ar  
    21     8    23 ar  
    22     9    10 ar  
    23     9    36 1   
    24    10    11 ar  
    25    10    37 1   
    26    11    12 1   
    27    11    22 ar  
    28    12    24 2   
    29    12    25 1   
    30    13    27 1   
    31    13    28 1   
    32    13    38 1   
    33    13    39 1   
    34    14    29 ar  
    35    14    30 ar  
    36    14    40 1   
    37    15    16 ar  
    38    15    31 ar  
    39    15    41 1   
    40    16    29 ar  
    41    16    42 1   
    42    18    19 1   
    43    22    23 ar  
    44    22    43 1   
    45    23    44 1   
    46    25    45 1   
    47    25    46 1   
    48    26    47 1   
    49    26    48 1   
    50    27    28 1   
    51    27    29 1   
    52    28    49 1   
    53    28    50 1   
    54    30    31 ar  
    55    30    51 1   
    56    31    52 1   
@<TRIPOS>SUBSTRUCTURE
     1 74N         1 TEMP              0 ****  ****    0 ROOT
