@<TRIPOS>MOLECULE
74O
   45    49     1     0     0
SMALL
No Charge or Current Charge


@<TRIPOS>ATOM
      1 C1          -5.9400     1.2120    -2.1630 ca         1 74O      -0.105000
      2 C2          -5.0380     0.2150    -2.5700 ca         1 74O      -0.110500
      3 C3          -6.0640     1.5300    -0.8010 ca         1 74O      -0.110500
      4 C7           1.4990    -1.8590    -0.5990 ca         1 74O       0.368900
      5 C8           4.6230     2.0990     0.2880 cc         1 74O      -0.122000
      6 C9           4.7180     0.7550     0.0300 cd         1 74O      -0.272500
      7 C10         -4.3800    -0.1490    -0.2470 ca         1 74O      -0.058300
      8 C11          1.3100    -0.5760    -0.0030 ca         1 74O       0.222000
      9 C12          3.5890    -0.1600    -0.2430 ca         1 74O       0.356500
     10 C13          3.7330    -1.4750    -0.8340 ca         1 74O       0.557900
     11 C14         -0.0540    -0.1690     0.4260 cc         1 74O       0.490000
     12 C15         -2.1410    -0.3240     0.7390 cd         1 74O       0.459800
     13 C16         -4.1170    -1.3390     2.0820 cx         1 74O      -0.099900
     14 N23         -1.1220    -1.0090     0.2580 nc         1 74O      -0.705000
     15 N25          5.9340     2.4890     0.5450 na         1 74O      -0.002200
     16 N26         -1.6720     0.9020     1.1900 na         1 74O      -0.047700
     17 C4          -4.2600    -0.4620    -1.6150 ca         1 74O      -0.099000
     18 C5          -5.2860     0.8530     0.1550 ca         1 74O      -0.099000
     19 C6           6.0790     0.4090     0.2000 cd         1 74O       0.250900
     20 C17         -3.7660    -2.3510     1.0210 cx         1 74O      -0.099900
     21 C18         -3.5310    -0.8740     0.7620 cx         1 74O      -0.125000
     22 N20          2.7130    -2.3180    -1.0220 nb         1 74O      -0.726000
     23 N21          6.8410     1.4440     0.4970 nc         1 74O      -0.527800
     24 N22          2.3710     0.2800     0.1810 nb         1 74O      -0.607000
     25 N24         -0.3230     1.0040     0.9850 nd         1 74O      -0.497800
     26 N27          4.8550    -2.0510    -1.3350 nv         1 74O      -1.040900
     27 H1          -6.5420     1.7360    -2.9020 ha         1 74O       0.114000
     28 H2          -4.9400    -0.0330    -3.6250 ha         1 74O       0.114500
     29 H3          -6.7620     2.3030    -0.4840 ha         1 74O       0.114500
     30 H4           0.6640    -2.5420    -0.7480 h4         1 74O       0.046100
     31 H6          -5.1730    -1.1600     2.2720 hc         1 74O       0.083450
     32 H7          -3.4850    -1.2950     2.9660 hc         1 74O       0.083450
     33 H11          6.2370     3.4390     0.7640 hn         1 74O       0.372000
     34 H12         -3.5610    -1.2310    -1.9370 ha         1 74O       0.118500
     35 H13         -5.3900     1.1100     1.2060 ha         1 74O       0.118500
     36 H14          6.5390    -0.5690     0.1290 h4         1 74O       0.044100
     37 H15         -2.9030    -2.9890     1.1980 hc         1 74O       0.083450
     38 H16         -4.5840    -2.8350     0.4930 hc         1 74O       0.083450
     39 H17          5.5850    -1.4350    -1.6770 hn         1 74O       0.474000
     40 H18          4.6960    -2.8930    -1.8770 hn         1 74O       0.474000
     41 C19         -2.4500     1.9890     1.8050 c3         1 74O       0.072900
     42 H5           3.7780     2.7790     0.3100 h4         1 74O       0.171000
     43 H8          -1.7790     2.6840     2.3230 h1         1 74O       0.061033
     44 H9          -3.0000     2.5300     1.0260 h1         1 74O       0.061033
     45 H10         -3.1610     1.5710     2.5280 h1         1 74O       0.061033
@<TRIPOS>BOND
     1     1     2 ar  
     2     1     3 ar  
     3     1    27 1   
     4     2    17 ar  
     5     2    28 1   
     6     3    18 ar  
     7     3    29 1   
     8     4     8 ar  
     9     4    22 ar  
    10     4    30 1   
    11     5     6 2   
    12     5    15 1   
    13     5    42 1   
    14     6     9 1   
    15     6    19 1   
    16     7    17 ar  
    17     7    18 ar  
    18     7    21 1   
    19     8    11 1   
    20     8    24 ar  
    21     9    10 ar  
    22     9    24 ar  
    23    10    22 ar  
    24    10    26 1   
    25    11    14 1   
    26    11    25 2   
    27    12    14 2   
    28    12    16 1   
    29    12    21 1   
    30    13    20 1   
    31    13    21 1   
    32    13    31 1   
    33    13    32 1   
    34    15    23 1   
    35    15    33 1   
    36    16    25 1   
    37    16    41 1   
    38    17    34 1   
    39    18    35 1   
    40    19    23 2   
    41    19    36 1   
    42    20    21 1   
    43    20    37 1   
    44    20    38 1   
    45    26    39 1   
    46    26    40 1   
    47    41    43 1   
    48    41    44 1   
    49    41    45 1   
@<TRIPOS>SUBSTRUCTURE
     1 74O         1 TEMP              0 ****  ****    0 ROOT
