@<TRIPOS>MOLECULE
74O
   45    49     1     0     0
SMALL
bcc


@<TRIPOS>ATOM
      1 C1          -5.9640     1.3070    -2.0670 ca         1 74O      -0.123000
      2 C2          -4.8600     0.5700    -2.4820 ca         1 74O      -0.128500
      3 C3          -6.2750     1.3700    -0.7170 ca         1 74O      -0.128500
      4 C7           1.5580    -2.0710    -0.5210 ca         1 74O       0.368900
      5 C8           4.4500     2.0260     0.0920 cc         1 74O      -0.089300
      6 C9           4.6190     0.6540     0.0260 cd         1 74O      -0.337800
      7 C10         -4.3890    -0.0440    -0.1910 ca         1 74O      -0.058300
      8 C11          1.3210    -0.8060    -0.0100 ca         1 74O       0.222000
      9 C12          3.5490    -0.3130    -0.1960 ca         1 74O       0.356500
     10 C13          3.7690    -1.5920    -0.7810 ca         1 74O       0.557900
     11 C14         -0.0210    -0.3770     0.3770 cc         1 74O       0.490000
     12 C15         -2.0890    -0.4280     0.7090 cd         1 74O       0.459800
     13 C16         -4.0560    -1.2280     2.1160 cx         1 74O      -0.099900
     14 N23         -1.1050    -1.1740     0.2560 nc         1 74O      -0.705000
     15 N25          5.6530     2.5430     0.3560 na         1 74O      -0.002600
     16 N26         -1.6020     0.7630     1.0870 na         1 74O      -0.018400
     17 C4          -4.0810    -0.0990    -1.5500 ca         1 74O      -0.117000
     18 C5          -5.4890     0.7030     0.2150 ca         1 74O      -0.117000
     19 C6           5.9970     0.4740     0.2830 cd         1 74O       0.316200
     20 C17         -3.8260    -2.2390     1.0450 cx         1 74O      -0.099900
     21 C18         -3.5210    -0.7910     0.7770 cx         1 74O      -0.125000
     22 N20          2.7670    -2.4500    -0.9100 nb         1 74O      -0.726000
     23 N21          6.6060     1.6270     0.4820 nc         1 74O      -0.527800
     24 N22          2.3320     0.0480     0.1520 nb         1 74O      -0.607000
     25 N24         -0.2850     0.8110     0.8750 nd         1 74O      -0.497800
     26 N27          5.0000    -1.9940    -1.1960 nv         1 74O      -0.930500
     27 H1          -6.5750     1.8280    -2.7920 ha         1 74O       0.132000
     28 H2          -4.6070     0.5150    -3.5320 ha         1 74O       0.132500
     29 H3          -7.1300     1.9440    -0.3830 ha         1 74O       0.132500
     30 H4           0.7560    -2.7910    -0.6310 h4         1 74O       0.046100
     31 H6          -5.0750    -0.9630     2.3640 hc         1 74O       0.083450
     32 H7          -3.3740    -1.2060     2.9570 hc         1 74O       0.083450
     33 H11          5.8820     3.5200     0.4510 hn         1 74O       0.321700
     34 H12         -3.2250    -0.6730    -1.8830 ha         1 74O       0.136500
     35 H13         -5.7420     0.7730     1.2660 ha         1 74O       0.136500
     36 H14          6.5560    -0.4460     0.3580 h4         1 74O       0.044100
     37 H15         -2.9900    -2.9190     1.1390 hc         1 74O       0.083450
     38 H16         -4.6890    -2.6520     0.5410 hc         1 74O       0.083450
     39 H17          5.6500    -1.2880    -1.5020 hn         1 74O       0.418800
     40 H18          5.0100    -2.8260    -1.7660 hn         1 74O       0.418800
     41 C19         -2.3010     1.9050     1.6240 c3         1 74O       0.043600
     42 H5           3.5750     2.6400    -0.0400 h4         1 74O       0.189000
     43 H8          -1.7280     2.3180     2.4500 h1         1 74O       0.061033
     44 H9          -2.4350     2.6690     0.8590 h1         1 74O       0.061033
     45 H10         -3.2750     1.5960     1.9900 h1         1 74O       0.061033
@<TRIPOS>BOND
     1     1     2 ar  
     2     1     3 ar  
     3     1    27 1   
     4     2    17 ar  
     5     2    28 1   
     6     3    18 ar  
     7     3    29 1   
     8     4     8 ar  
     9     4    22 ar  
    10     4    30 1   
    11     5     6 2   
    12     5    15 1   
    13     5    42 1   
    14     6     9 1   
    15     6    19 1   
    16     7    17 ar  
    17     7    18 ar  
    18     7    21 1   
    19     8    11 1   
    20     8    24 ar  
    21     9    10 ar  
    22     9    24 ar  
    23    10    22 ar  
    24    10    26 1   
    25    11    14 1   
    26    11    25 2   
    27    12    14 2   
    28    12    16 1   
    29    12    21 1   
    30    13    20 1   
    31    13    21 1   
    32    13    31 1   
    33    13    32 1   
    34    15    23 1   
    35    15    33 1   
    36    16    25 1   
    37    16    41 1   
    38    17    34 1   
    39    18    35 1   
    40    19    23 2   
    41    19    36 1   
    42    20    21 1   
    43    20    37 1   
    44    20    38 1   
    45    26    39 1   
    46    26    40 1   
    47    41    43 1   
    48    41    44 1   
    49    41    45 1   
@<TRIPOS>SUBSTRUCTURE
     1 74O         1 TEMP              0 ****  ****    0 ROOT
