@<TRIPOS>MOLECULE
74P
   34    33     1     0     0
SMALL
No Charge or Current Charge


@<TRIPOS>ATOM
      1 C2          21.9400    10.5380    24.7840 c          1 74P       0.621100
      2 O2          22.9260    12.5030    20.9680 o          1 74P      -0.717500
      3 O4          20.7430    10.7610    24.9100 o          1 74P      -0.546100
      4 N           18.3040    19.6620    25.9710 n8         1 74P      -0.999200
      5 CA          19.1640    18.5060    26.4180 c3         1 74P       0.013500
      6 CB          19.7090    17.7450    25.1780 c3         1 74P      -0.044400
      7 CG          20.4490    16.4290    25.5200 c3         1 74P      -0.076400
      8 CD          20.9290    15.6620    24.2680 c3         1 74P      -0.067400
      9 CE          21.6640    14.3500    24.6140 c3         1 74P       0.102800
     10 NZ          22.0950    13.6700    23.3850 n2         1 74P      -0.570900
     11 CX1         22.6540    12.4810    23.3680 ce         1 74P       0.348300
     12 C1          22.9490    11.6710    24.6330 c3         1 74P      -0.252700
     13 CX2         23.1100    11.8780    22.0110 c          1 74P       0.633700
     14 O6          23.6440    10.7730    21.9960 o          1 74P      -0.717500
     15 C           20.3210    18.8620    27.4440 c          1 74P       0.692000
     16 O           21.1230    19.7370    27.1390 o          1 74P      -0.743000
     17 C3          22.4920     9.1120    24.8370 c3         1 74P      -0.194100
     18 O1          20.2940    18.3440    28.5520 o          1 74P      -0.743000
     19 H6          18.4920    17.8130    26.9440 h1         1 74P       0.035700
     20 H7          20.3890    18.4010    24.6190 hc         1 74P       0.022200
     21 H8          18.8740    17.5100    24.5060 hc         1 74P       0.022200
     22 H9          19.7800    15.7820    26.1020 hc         1 74P       0.042700
     23 H10         21.3160    16.6480    26.1540 hc         1 74P       0.042700
     24 H11         21.5980    16.3070    23.6850 hc         1 74P       0.037700
     25 H12         20.0650    15.4330    23.6310 hc         1 74P       0.037700
     26 H13         20.9870    13.7090    25.1940 h1         1 74P       0.021700
     27 H14         22.5310    14.5870    25.2450 h1         1 74P       0.021700
     28 H15         23.9580    11.2470    24.5820 hc         1 74P       0.046700
     29 H16         22.9190    12.2830    25.5400 hc         1 74P       0.046700
     30 H18         21.7090     8.3590    24.9810 hc         1 74P       0.044367
     31 H19         23.0800     8.9160    23.9340 hc         1 74P       0.044367
     32 H20         23.2540     9.0560    25.6230 hc         1 74P       0.044367
     33 H3          17.8980    20.1150    26.8000 hn         1 74P       0.374500
     34 H4          18.9190    20.3890    25.5860 hn         1 74P       0.374500
@<TRIPOS>BOND
     1     1     3 2   
     2     1    12 1   
     3     1    17 1   
     4     2    13 1   
     5     4     5 1   
     6     4    33 1   
     7     4    34 1   
     8     5     6 1   
     9     5    15 1   
    10     5    19 1   
    11     6     7 1   
    12     6    20 1   
    13     6    21 1   
    14     7     8 1   
    15     7    22 1   
    16     7    23 1   
    17     8     9 1   
    18     8    24 1   
    19     8    25 1   
    20     9    10 1   
    21     9    26 1   
    22     9    27 1   
    23    10    11 2   
    24    11    12 1   
    25    11    13 1   
    26    12    28 1   
    27    12    29 1   
    28    13    14 1   
    29    15    16 1   
    30    15    18 1   
    31    17    30 1   
    32    17    31 1   
    33    17    32 1   
@<TRIPOS>SUBSTRUCTURE
     1 74P         1 TEMP              0 ****  ****    0 ROOT
