@<TRIPOS>MOLECULE
74P
   34    33     1     0     0
SMALL
abcg2


@<TRIPOS>ATOM
      1 C2          21.8360    10.6430    24.5750 c          1 74P       0.621100
      2 O2          23.2500    12.5900    21.0150 o          1 74P      -0.717500
      3 O4          20.6820    10.8930    24.3060 o          1 74P      -0.546100
      4 N           18.2050    19.3340    26.0240 n8         1 74P      -0.999200
      5 CA          19.1530    18.3120    26.4650 c3         1 74P       0.013500
      6 CB          19.7470    17.6340    25.2270 c3         1 74P      -0.044400
      7 CG          20.6170    16.4170    25.5120 c3         1 74P      -0.076400
      8 CD          21.0660    15.7040    24.2440 c3         1 74P      -0.067400
      9 CE          21.9210    14.4820    24.5460 c3         1 74P       0.102800
     10 NZ          22.3100    13.8060    23.3250 n2         1 74P      -0.570900
     11 CX1         22.7170    12.6100    23.3440 ce         1 74P       0.348300
     12 C1          22.8870    11.7300    24.5560 c3         1 74P      -0.252700
     13 CX2         23.0380    11.8960    22.0190 c          1 74P       0.633700
     14 O6          23.0360    10.6500    22.1040 o          1 74P      -0.717500
     15 C           20.2870    18.8440    27.3750 c          1 74P       0.692000
     16 O           20.7460    19.9690    27.0850 o          1 74P      -0.743000
     17 C3          22.2910     9.2860    25.0260 c3         1 74P      -0.194100
     18 O1          20.6720    18.0980    28.2990 o          1 74P      -0.743000
     19 H6          18.5860    17.5560    27.0190 h1         1 74P       0.035700
     20 H7          20.3260    18.3730    24.6600 hc         1 74P       0.022200
     21 H8          18.9170    17.3350    24.5790 hc         1 74P       0.022200
     22 H9          20.0590    15.7150    26.1420 hc         1 74P       0.042700
     23 H10         21.4970    16.7070    26.0930 hc         1 74P       0.042700
     24 H11         21.6300    16.3930    23.6070 hc         1 74P       0.037700
     25 H12         20.1900    15.3940    23.6650 hc         1 74P       0.037700
     26 H13         21.3700    13.8230    25.2270 h1         1 74P       0.021700
     27 H14         22.8200    14.8000    25.0890 h1         1 74P       0.021700
     28 H15         23.8860    11.2900    24.5580 hc         1 74P       0.046700
     29 H16         22.7920    12.2870    25.4920 hc         1 74P       0.046700
     30 H18         21.4680     8.5750    25.0640 hc         1 74P       0.044367
     31 H19         23.0610     8.9170    24.3480 hc         1 74P       0.044367
     32 H20         22.7490     9.3600    26.0140 hc         1 74P       0.044367
     33 H3          17.7210    19.7000    26.8370 hn         1 74P       0.374500
     34 H4          18.7470    20.1190    25.6790 hn         1 74P       0.374500
@<TRIPOS>BOND
     1     1     3 2   
     2     1    12 1   
     3     1    17 1   
     4     2    13 1   
     5     4     5 1   
     6     4    33 1   
     7     4    34 1   
     8     5     6 1   
     9     5    15 1   
    10     5    19 1   
    11     6     7 1   
    12     6    20 1   
    13     6    21 1   
    14     7     8 1   
    15     7    22 1   
    16     7    23 1   
    17     8     9 1   
    18     8    24 1   
    19     8    25 1   
    20     9    10 1   
    21     9    26 1   
    22     9    27 1   
    23    10    11 2   
    24    11    12 1   
    25    11    13 1   
    26    12    28 1   
    27    12    29 1   
    28    13    14 1   
    29    15    16 1   
    30    15    18 1   
    31    17    30 1   
    32    17    31 1   
    33    17    32 1   
@<TRIPOS>SUBSTRUCTURE
     1 74P         1 TEMP              0 ****  ****    0 ROOT
