@<TRIPOS>MOLECULE
74Q
   50    55     1     0     0
SMALL
No Charge or Current Charge


@<TRIPOS>ATOM
      1 C1           6.8040     0.0410    -2.3990 ca         1 74Q      -0.104000
      2 C2           6.8200    -1.0340    -1.4940 ca         1 74Q      -0.110500
      3 C3           5.9740     1.1480    -2.1570 ca         1 74Q      -0.110500
      4 C7           5.1620     1.1810    -1.0100 ca         1 74Q      -0.098500
      5 C8          -6.6250    -2.1440    -0.4070 ca         1 74Q      -0.040000
      6 C9          -4.3170    -1.5490     1.1460 ca         1 74Q      -0.078000
      7 C10         -0.5890     2.1250     0.4790 ca         1 74Q       0.390900
      8 C11          5.1740     0.1080    -0.0980 ca         1 74Q      -0.060300
      9 C12         -5.7130    -1.1560    -0.8070 ca         1 74Q       0.000400
     10 C13         -4.6150    -0.8840    -0.0520 ca         1 74Q      -0.042200
     11 C14         -0.4950     0.7340     0.1850 ca         1 74Q       0.219000
     12 C15         -2.7800     0.7110    -0.3300 ca         1 74Q       0.337500
     13 C16         -2.8130     2.1220    -0.0120 ca         1 74Q       0.623900
     14 C19          4.8030    -0.3030     2.4720 cx         1 74Q      -0.100900
     15 C20          4.5690     1.1640     2.2160 cx         1 74Q      -0.100900
     16 C21          4.2890     0.1530     1.1190 cx         1 74Q      -0.124000
     17 C22          3.0180    -2.6770     0.2100 c3         1 74Q       0.071900
     18 N23         -1.7520     2.8320     0.3830 nb         1 74Q      -0.748000
     19 N25         -1.6010     0.0230    -0.2230 nb         1 74Q      -0.625000
     20 N26          1.9290     0.7410     0.7240 nc         1 74Q      -0.703000
     21 N29         -3.9770     0.1080    -0.7300 na         1 74Q       0.068100
     22 C4          -6.3690    -2.8430     0.7950 ca         1 74Q      -0.131000
     23 C5          -5.2200    -2.5480     1.5690 ca         1 74Q      -0.092000
     24 C6           6.0080    -1.0000    -0.3470 ca         1 74Q      -0.098500
     25 C17          0.8180     0.0490     0.3240 cc         1 74Q       0.493000
     26 C18          2.8820    -0.1690     0.7300 cd         1 74Q       0.462800
     27 N24         -5.7440    -0.3410    -1.9370 nc         1 74Q      -0.204400
     28 N27          0.9970    -1.2420     0.0790 nd         1 74Q      -0.505800
     29 N28         -4.6610     0.4400    -1.8870 nd         1 74Q      -0.199400
     30 N30          2.3320    -1.3840     0.3440 na         1 74Q      -0.044700
     31 N31         -3.8750     2.9620    -0.0490 nv         1 74Q      -1.065900
     32 H1           7.4320     0.0140    -3.2870 ha         1 74Q       0.115000
     33 H2           7.4610    -1.8920    -1.6810 ha         1 74Q       0.115000
     34 H3           5.9600     1.9810    -2.8570 ha         1 74Q       0.115000
     35 H4           4.5210     2.0410    -0.8290 ha         1 74Q       0.118500
     36 H6          -3.4280    -1.3100     1.7270 ha         1 74Q       0.163000
     37 H7           0.2810     2.6960     0.8020 h4         1 74Q       0.051100
     38 H8           5.8340    -0.6380     2.5490 hc         1 74Q       0.083450
     39 H9           4.1100    -0.8170     3.1340 hc         1 74Q       0.083450
     40 H10          3.7230     1.6340     2.7130 hc         1 74Q       0.083450
     41 H11          5.4410     1.8030     2.1070 hc         1 74Q       0.083450
     42 H12          2.2840    -3.4920     0.1890 h1         1 74Q       0.062033
     43 H13          3.5970    -2.6890    -0.7210 h1         1 74Q       0.062033
     44 H14          3.6950    -2.8270     1.0600 h1         1 74Q       0.062033
     45 H15         -7.0610    -3.6140     1.1270 ha         1 74Q       0.117000
     46 H16         -5.0320    -3.0920     2.4920 ha         1 74Q       0.116000
     47 H17          6.0280    -1.8390     0.3450 ha         1 74Q       0.118500
     48 H18         -4.6440     2.7140    -0.6640 hn         1 74Q       0.519000
     49 H19         -3.6340     3.9460    -0.0110 hn         1 74Q       0.519000
     50 H5          -7.5050    -2.3650    -1.0070 ha         1 74Q       0.132000
@<TRIPOS>BOND
     1     1     2 ar  
     2     1     3 ar  
     3     1    32 1   
     4     2    24 ar  
     5     2    33 1   
     6     3     4 ar  
     7     3    34 1   
     8     4     8 ar  
     9     4    35 1   
    10     5     9 ar  
    11     5    22 ar  
    12     5    50 1   
    13     6    10 ar  
    14     6    23 ar  
    15     6    36 1   
    16     7    11 ar  
    17     7    18 ar  
    18     7    37 1   
    19     8    16 1   
    20     8    24 ar  
    21     9    10 ar  
    22     9    27 1   
    23    10    21 1   
    24    11    19 ar  
    25    11    25 1   
    26    12    13 ar  
    27    12    19 ar  
    28    12    21 1   
    29    13    18 ar  
    30    13    31 1   
    31    14    15 1   
    32    14    16 1   
    33    14    38 1   
    34    14    39 1   
    35    15    16 1   
    36    15    40 1   
    37    15    41 1   
    38    16    26 1   
    39    17    30 1   
    40    17    42 1   
    41    17    43 1   
    42    17    44 1   
    43    20    25 1   
    44    20    26 2   
    45    21    29 1   
    46    22    23 ar  
    47    22    45 1   
    48    23    46 1   
    49    24    47 1   
    50    25    28 2   
    51    26    30 1   
    52    27    29 2   
    53    28    30 1   
    54    31    48 1   
    55    31    49 1   
@<TRIPOS>SUBSTRUCTURE
     1 74Q         1 TEMP              0 ****  ****    0 ROOT
