@<TRIPOS>MOLECULE
74Q
   50    55     1     0     0
SMALL
abcg2


@<TRIPOS>ATOM
      1 C1           6.3070    -0.8740    -2.4210 ca         1 74Q      -0.104000
      2 C2           6.4650    -1.6250    -1.2660 ca         1 74Q      -0.110500
      3 C3           5.4330     0.2080    -2.4210 ca         1 74Q      -0.110500
      4 C7           4.7300     0.5340    -1.2720 ca         1 74Q      -0.098500
      5 C8          -5.9440    -2.3880    -0.3740 ca         1 74Q      -0.040000
      6 C9          -3.1560    -1.9000     0.0530 ca         1 74Q      -0.078000
      7 C10         -0.6340     2.7350     0.4260 ca         1 74Q       0.390900
      8 C11          4.8860    -0.2140    -0.1040 ca         1 74Q      -0.060300
      9 C12         -5.4320    -1.0900    -0.3020 ca         1 74Q       0.000400
     10 C13         -4.0710    -0.8520    -0.0930 ca         1 74Q      -0.042200
     11 C14         -0.6080     1.3510     0.4150 ca         1 74Q       0.219000
     12 C15         -2.8630     1.3310     0.0850 ca         1 74Q       0.337500
     13 C16         -2.9070     2.7600     0.0980 ca         1 74Q       0.623900
     14 C19          4.6200    -0.1390     2.4930 cx         1 74Q      -0.100900
     15 C20          4.6230     1.2680     1.9960 cx         1 74Q      -0.100900
     16 C21          4.1000     0.1710     1.1130 cx         1 74Q      -0.124000
     17 C22          2.4040    -2.3730     0.8070 c3         1 74Q       0.071900
     18 N23         -1.7590     3.4110     0.2690 nb         1 74Q      -0.748000
     19 N25         -1.7470     0.6860     0.2390 nb         1 74Q      -0.625000
     20 N26          1.8220     1.1550     0.8000 nc         1 74Q      -0.703000
     21 N29         -3.9960     0.5160    -0.0880 na         1 74Q       0.068100
     22 C4          -5.0490    -3.4220    -0.2290 ca         1 74Q      -0.131000
     23 C5          -3.6770    -3.1740    -0.0190 ca         1 74Q      -0.092000
     24 C6           5.7550    -1.2990    -0.1150 ca         1 74Q      -0.098500
     25 C17          0.6180     0.5810     0.5910 cc         1 74Q       0.493000
     26 C18          2.6360     0.1270     0.9140 cd         1 74Q       0.462800
     27 N24         -6.0740     0.1110    -0.4070 nc         1 74Q      -0.204400
     28 N27          0.6470    -0.7340     0.5670 nd         1 74Q      -0.505800
     29 N28         -5.2150     1.0360    -0.2790 nd         1 74Q      -0.199400
     30 N30          1.9350    -1.0080     0.7800 na         1 74Q      -0.044700
     31 N31         -4.0190     3.4900    -0.0410 nv         1 74Q      -1.065900
     32 H1           6.8600    -1.1270    -3.3160 ha         1 74Q       0.115000
     33 H2           7.1390    -2.4710    -1.2560 ha         1 74Q       0.115000
     34 H3           5.3030     0.8010    -3.3170 ha         1 74Q       0.115000
     35 H4           4.0540     1.3810    -1.2780 ha         1 74Q       0.118500
     36 H6          -2.1020    -1.7280     0.2090 ha         1 74Q       0.163000
     37 H7           0.2720     3.3140     0.5650 h4         1 74Q       0.051100
     38 H8           5.5640    -0.6610     2.5720 hc         1 74Q       0.083450
     39 H9           3.8960    -0.4100     3.2510 hc         1 74Q       0.083450
     40 H10          3.9070     1.9650     2.4110 hc         1 74Q       0.083450
     41 H11          5.5710     1.7070     1.7160 hc         1 74Q       0.083450
     42 H12          1.6960    -2.9830     1.3600 h1         1 74Q       0.062033
     43 H13          2.5090    -2.7650    -0.2040 h1         1 74Q       0.062033
     44 H14          3.3680    -2.4110     1.3040 h1         1 74Q       0.062033
     45 H15         -5.3960    -4.4450    -0.2770 ha         1 74Q       0.117000
     46 H16         -3.0070    -4.0160     0.0900 ha         1 74Q       0.116000
     47 H17          5.8840    -1.8990     0.7770 ha         1 74Q       0.118500
     48 H18         -4.9120     3.0610    -0.2120 hn         1 74Q       0.519000
     49 H19         -3.9370     4.4930    -0.0500 hn         1 74Q       0.519000
     50 H5          -6.9990    -2.5620    -0.5350 ha         1 74Q       0.132000
@<TRIPOS>BOND
     1     1     2 ar  
     2     1     3 ar  
     3     1    32 1   
     4     2    24 ar  
     5     2    33 1   
     6     3     4 ar  
     7     3    34 1   
     8     4     8 ar  
     9     4    35 1   
    10     5     9 ar  
    11     5    22 ar  
    12     5    50 1   
    13     6    10 ar  
    14     6    23 ar  
    15     6    36 1   
    16     7    11 ar  
    17     7    18 ar  
    18     7    37 1   
    19     8    16 1   
    20     8    24 ar  
    21     9    10 ar  
    22     9    27 1   
    23    10    21 1   
    24    11    19 ar  
    25    11    25 1   
    26    12    13 ar  
    27    12    19 ar  
    28    12    21 1   
    29    13    18 ar  
    30    13    31 1   
    31    14    15 1   
    32    14    16 1   
    33    14    38 1   
    34    14    39 1   
    35    15    16 1   
    36    15    40 1   
    37    15    41 1   
    38    16    26 1   
    39    17    30 1   
    40    17    42 1   
    41    17    43 1   
    42    17    44 1   
    43    20    25 1   
    44    20    26 2   
    45    21    29 1   
    46    22    23 ar  
    47    22    45 1   
    48    23    46 1   
    49    24    47 1   
    50    25    28 2   
    51    26    30 1   
    52    27    29 2   
    53    28    30 1   
    54    31    48 1   
    55    31    49 1   
@<TRIPOS>SUBSTRUCTURE
     1 74Q         1 TEMP              0 ****  ****    0 ROOT
