@<TRIPOS>MOLECULE
74S
   70    76     1     0     0
SMALL
abcg2


@<TRIPOS>ATOM
      1 C10          4.0510    -0.2250    -0.7020 c3         1 74S       0.097600
      2 C13          3.4920     2.6940     0.5550 ca         1 74S      -0.102000
      3 C15          3.6720     4.7250    -0.7190 ca         1 74S      -0.080000
      4 C17          5.1350     2.8720    -1.1830 ca         1 74S      -0.102000
      5 C21         -1.3130    -0.0840     1.2800 cc         1 74S       0.199300
      6 C22         -0.0900    -0.2120     0.6780 cd         1 74S      -0.214000
      7 C26         -4.8340     0.6110    -1.2250 cp         1 74S      -0.079500
      8 C28         -4.6230     0.3580     1.0340 ca         1 74S       0.000800
      9 C32         -5.1870     0.6800    -2.5700 ca         1 74S      -0.048000
     10 C31         -4.2500     1.1270    -3.4860 ca         1 74S      -0.140000
     11 C30         -2.9670     1.5010    -3.0680 ca         1 74S      -0.080500
     12 C29         -2.5930     1.4410    -1.7360 ca         1 74S      -0.144500
     13 C25         -3.5420     0.9980    -0.8190 ca         1 74S       0.000800
     14 C27         -5.5300     0.2010    -0.0330 cp         1 74S      -0.079500
     15 C33         -6.8140    -0.2790     0.2140 ca         1 74S      -0.048000
     16 C34         -7.1720    -0.5960     1.5120 ca         1 74S      -0.140000
     17 C35         -6.2570    -0.4410     2.5610 ca         1 74S      -0.080500
     18 C36         -4.9740     0.0320     2.3410 ca         1 74S      -0.144500
     19 N24         -3.4390     0.8610     0.5450 na         1 74S      -0.101600
     20 C23         -2.2370     1.0860     1.3100 c3         1 74S       0.069300
     21 N20         -1.6080    -1.2630     1.8700 nc         1 74S      -0.311000
     22 N19         -0.6460    -2.0910     1.6660 nd         1 74S      -0.185800
     23 N18          0.2790    -1.4780     0.9460 na         1 74S       0.102800
     24 C07          1.5240    -2.1510     0.6330 c6         1 74S       0.092300
     25 C08          2.6690    -1.5900     1.4850 c6         1 74S      -0.118400
     26 C06          1.8250    -2.1090    -0.8690 c6         1 74S      -0.118400
     27 C04          3.2480    -2.5750    -1.1490 c5         1 74S       0.126300
     28 C03          3.5130    -3.9480    -0.5200 c5         1 74S      -0.103900
     29 C02          4.0240    -3.6420     0.9030 c5         1 74S      -0.103900
     30 C01          4.0140    -2.1140     1.0090 c5         1 74S       0.126300
     31 N05          4.2530    -1.6850    -0.4280 n4         1 74S      -0.514000
     32 C72          5.6400    -2.0370    -0.8530 c3         1 74S       0.075900
     33 C11          4.9630     0.7060     0.0890 c3         1 74S      -0.038100
     34 C12          4.5330     2.1240    -0.1750 ca         1 74S      -0.126300
     35 C14          3.0630     3.9860     0.2870 ca         1 74S      -0.096500
     36 C16          4.7100     4.1660    -1.4530 ca         1 74S      -0.096500
     37 H1           4.1920    -0.0900    -1.7750 hx         1 74S       0.093200
     38 H2           3.0200     0.0340    -0.4880 hx         1 74S       0.093200
     39 H3           3.0200     2.1280     1.3500 ha         1 74S       0.108500
     40 H4           3.3420     5.7350    -0.9270 ha         1 74S       0.134000
     41 H5           5.9470     2.4410    -1.7580 ha         1 74S       0.108500
     42 H6           0.5040     0.4790     0.1020 h4         1 74S       0.161000
     43 H8          -4.5060     1.1850    -4.5350 ha         1 74S       0.118500
     44 H9          -2.2480     1.8420    -3.8020 ha         1 74S       0.111000
     45 H10         -1.5950     1.7330    -1.4330 ha         1 74S       0.108500
     46 H11         -7.5210    -0.4020    -0.5980 ha         1 74S       0.121000
     47 H12         -8.1640    -0.9710     1.7240 ha         1 74S       0.118500
     48 H13         -6.5560    -0.7010     3.5680 ha         1 74S       0.111000
     49 H14         -4.2760     0.1310     3.1620 ha         1 74S       0.108500
     50 H15         -2.5200     1.3190     2.3370 h1         1 74S       0.073200
     51 H16         -1.7320     1.9730     0.9270 h1         1 74S       0.073200
     52 H17          1.3570    -3.1890     0.9210 h1         1 74S       0.108700
     53 H18          2.6560    -0.4980     1.5090 hc         1 74S       0.093700
     54 H19          2.5410    -1.9090     2.5200 hc         1 74S       0.093700
     55 H20          1.1560    -2.7940    -1.3920 hc         1 74S       0.093700
     56 H21          1.6350    -1.1260    -1.3000 hc         1 74S       0.093700
     57 H22          3.4600    -2.5330    -2.2170 hx         1 74S       0.110700
     58 H23          2.5970    -4.5380    -0.5130 hc         1 74S       0.091450
     59 H24          3.3900    -4.0740     1.6760 hc         1 74S       0.091450
     60 H25          5.0260    -4.0370     1.0630 hc         1 74S       0.091450
     61 H26          4.8190    -1.7230     1.6300 hx         1 74S       0.110700
     62 H27          6.3540    -1.5510    -0.1960 hx         1 74S       0.094033
     63 H28          5.8030    -3.1070    -0.8120 hx         1 74S       0.094033
     64 H29          5.7870    -1.6960    -1.8740 hx         1 74S       0.094033
     65 H30          4.8960     0.4920     1.1580 hc         1 74S       0.065200
     66 H31          6.0060     0.5770    -0.2000 hc         1 74S       0.065200
     67 H32          2.2570     4.4170     0.8660 ha         1 74S       0.130500
     68 H33          5.1920     4.7380    -2.2350 ha         1 74S       0.130500
     69 H34          4.2400    -4.5160    -1.0980 hc         1 74S       0.091450
     70 H7          -6.1780     0.3860    -2.8950 ha         1 74S       0.121000
@<TRIPOS>BOND
     1     1    31 1   
     2     1    33 1   
     3     1    37 1   
     4     1    38 1   
     5     2    34 ar  
     6     2    35 ar  
     7     2    39 1   
     8     3    35 ar  
     9     3    36 ar  
    10     3    40 1   
    11     4    34 ar  
    12     4    36 ar  
    13     4    41 1   
    14     5     6 2   
    15     5    20 1   
    16     5    21 1   
    17     6    23 1   
    18     6    42 1   
    19     7     9 ar  
    20     7    13 ar  
    21     7    14 1   
    22     8    14 ar  
    23     8    18 ar  
    24     8    19 1   
    25     9    10 ar  
    26     9    70 1   
    27    10    11 ar  
    28    10    43 1   
    29    11    12 ar  
    30    11    44 1   
    31    12    13 ar  
    32    12    45 1   
    33    13    19 1   
    34    14    15 ar  
    35    15    16 ar  
    36    15    46 1   
    37    16    17 ar  
    38    16    47 1   
    39    17    18 ar  
    40    17    48 1   
    41    18    49 1   
    42    19    20 1   
    43    20    50 1   
    44    20    51 1   
    45    21    22 2   
    46    22    23 1   
    47    23    24 1   
    48    24    25 1   
    49    24    26 1   
    50    24    52 1   
    51    25    30 1   
    52    25    53 1   
    53    25    54 1   
    54    26    27 1   
    55    26    55 1   
    56    26    56 1   
    57    27    28 1   
    58    27    31 1   
    59    27    57 1   
    60    28    29 1   
    61    28    58 1   
    62    28    69 1   
    63    29    30 1   
    64    29    59 1   
    65    29    60 1   
    66    30    31 1   
    67    30    61 1   
    68    31    32 1   
    69    32    62 1   
    70    32    63 1   
    71    32    64 1   
    72    33    34 1   
    73    33    65 1   
    74    33    66 1   
    75    35    67 1   
    76    36    68 1   
@<TRIPOS>SUBSTRUCTURE
     1 74S         1 TEMP              0 ****  ****    0 ROOT
