@<TRIPOS>MOLECULE
74S
   70    76     1     0     0
SMALL
No Charge or Current Charge


@<TRIPOS>ATOM
      1 C10          3.2040    -0.4600    -1.0980 c3         1 74S       0.097600
      2 C13          2.8110     2.6090     0.1360 ca         1 74S      -0.102000
      3 C15          2.1670     4.5380    -1.2030 ca         1 74S      -0.080000
      4 C17          3.4670     2.7370    -2.2040 ca         1 74S      -0.102000
      5 C21         -1.1830    -0.1380     2.3550 cc         1 74S       0.199300
      6 C22         -0.0910    -0.3310     1.5700 cd         1 74S      -0.214000
      7 C26         -3.3120     1.1060    -1.0310 cp         1 74S      -0.079500
      8 C28         -4.1370     0.4380     1.0250 ca         1 74S       0.000800
      9 C32         -3.0730     1.3430    -2.3980 ca         1 74S      -0.048000
     10 C31         -1.9080     2.0550    -2.7610 ca         1 74S      -0.140000
     11 C30         -1.0050     2.5210    -1.7720 ca         1 74S      -0.080500
     12 C29         -1.2530     2.2840    -0.4030 ca         1 74S      -0.144500
     13 C25         -2.4130     1.5710    -0.0730 ca         1 74S       0.000800
     14 C27         -4.3910     0.4020    -0.3450 cp         1 74S      -0.079500
     15 C33         -5.5370    -0.2520    -0.8340 ca         1 74S      -0.048000
     16 C34         -6.4090    -0.8620     0.0970 ca         1 74S      -0.140000
     17 C35         -6.1330    -0.8170     1.4870 ca         1 74S      -0.080500
     18 C36         -4.9810    -0.1600     1.9700 ca         1 74S      -0.144500
     19 N24         -2.9320     1.1480     1.1630 na         1 74S      -0.101600
     20 C23         -2.0970     1.0570     2.3750 c3         1 74S       0.069300
     21 N20         -1.3910    -1.2230     3.1610 nc         1 74S      -0.311000
     22 N19         -0.4650    -2.1150     2.9040 nd         1 74S      -0.185800
     23 N18          0.3360    -1.5880     1.9270 na         1 74S       0.102800
     24 C07          1.4860    -2.3140     1.3440 c6         1 74S       0.092300
     25 C08          2.8190    -1.5760     1.6520 c6         1 74S      -0.118400
     26 C06          1.2760    -2.5490    -0.1800 c6         1 74S      -0.118400
     27 C04          2.5870    -2.9770    -0.9020 c5         1 74S       0.126300
     28 C03          3.2590    -4.2250    -0.2470 c5         1 74S      -0.103900
     29 C02          4.1980    -3.6370     0.8670 c5         1 74S      -0.103900
     30 C01          4.0000    -2.0910     0.7800 c5         1 74S       0.126300
     31 N05          3.6890    -1.8850    -0.7360 n4         1 74S      -0.514000
     32 C72          4.9170    -2.1840    -1.6270 c3         1 74S       0.075900
     33 C11          4.1770     0.7070    -0.8470 c3         1 74S      -0.038100
     34 C12          3.4710     2.0490    -0.9760 ca         1 74S      -0.126300
     35 C14          2.1630     3.8510     0.0220 ca         1 74S      -0.096500
     36 C16          2.8170     3.9790    -2.3170 ca         1 74S      -0.096500
     37 H1           2.9240    -0.4610    -2.1530 hx         1 74S       0.093200
     38 H2           2.3010    -0.2580    -0.5220 hx         1 74S       0.093200
     39 H3           2.8040     2.0860     1.0900 ha         1 74S       0.108500
     40 H4           1.6650     5.4990    -1.2910 ha         1 74S       0.134000
     41 H5           3.9680     2.3130    -3.0710 ha         1 74S       0.108500
     42 H6           0.3740     0.2870     0.8140 h4         1 74S       0.161000
     43 H8          -1.7010     2.2470    -3.8110 ha         1 74S       0.118500
     44 H9          -0.1130     3.0650    -2.0730 ha         1 74S       0.111000
     45 H10         -0.5650     2.6370     0.3600 ha         1 74S       0.108500
     46 H11         -5.7460    -0.2890    -1.9000 ha         1 74S       0.121000
     47 H12         -7.3010    -1.3730    -0.2580 ha         1 74S       0.118500
     48 H13         -6.8150    -1.2940     2.1880 ha         1 74S       0.111000
     49 H14         -4.7620    -0.1240     3.0340 ha         1 74S       0.108500
     50 H15         -2.7450     1.0110     3.2590 h1         1 74S       0.073200
     51 H16         -1.4930     1.9680     2.4610 h1         1 74S       0.073200
     52 H17          1.5340    -3.3000     1.8280 h1         1 74S       0.108700
     53 H18          2.7070    -0.4930     1.5230 hc         1 74S       0.093700
     54 H19          3.0680    -1.7120     2.7130 hc         1 74S       0.093700
     55 H20          0.5170    -3.3310    -0.3200 hc         1 74S       0.093700
     56 H21          0.8580    -1.6610    -0.6680 hc         1 74S       0.093700
     57 H22          2.3910    -3.1150    -1.9700 hx         1 74S       0.110700
     58 H23          2.5210    -4.9300     0.1530 hc         1 74S       0.091450
     59 H24          3.9650    -4.0280     1.8640 hc         1 74S       0.091450
     60 H25          5.2430    -3.9040     0.6730 hc         1 74S       0.091450
     61 H26          4.9100    -1.5360     1.0270 hx         1 74S       0.110700
     62 H27          5.7090    -1.4700    -1.3980 hx         1 74S       0.094033
     63 H28          5.2780    -3.1960    -1.4390 hx         1 74S       0.094033
     64 H29          4.6280    -2.0900    -2.6750 hx         1 74S       0.094033
     65 H30          4.6090     0.6100     0.1550 hc         1 74S       0.065200
     66 H31          5.0140     0.6430    -1.5510 hc         1 74S       0.065200
     67 H32          1.6580     4.2810     0.8850 ha         1 74S       0.130500
     68 H33          2.8180     4.5080    -3.2680 ha         1 74S       0.130500
     69 H34          3.8400    -4.7850    -0.9880 hc         1 74S       0.091450
     70 H7          -3.7650     0.9820    -3.1550 ha         1 74S       0.121000
@<TRIPOS>BOND
     1     1    31 1   
     2     1    33 1   
     3     1    37 1   
     4     1    38 1   
     5     2    34 ar  
     6     2    35 ar  
     7     2    39 1   
     8     3    35 ar  
     9     3    36 ar  
    10     3    40 1   
    11     4    34 ar  
    12     4    36 ar  
    13     4    41 1   
    14     5     6 2   
    15     5    20 1   
    16     5    21 1   
    17     6    23 1   
    18     6    42 1   
    19     7     9 ar  
    20     7    13 ar  
    21     7    14 1   
    22     8    14 ar  
    23     8    18 ar  
    24     8    19 1   
    25     9    10 ar  
    26     9    70 1   
    27    10    11 ar  
    28    10    43 1   
    29    11    12 ar  
    30    11    44 1   
    31    12    13 ar  
    32    12    45 1   
    33    13    19 1   
    34    14    15 ar  
    35    15    16 ar  
    36    15    46 1   
    37    16    17 ar  
    38    16    47 1   
    39    17    18 ar  
    40    17    48 1   
    41    18    49 1   
    42    19    20 1   
    43    20    50 1   
    44    20    51 1   
    45    21    22 2   
    46    22    23 1   
    47    23    24 1   
    48    24    25 1   
    49    24    26 1   
    50    24    52 1   
    51    25    30 1   
    52    25    53 1   
    53    25    54 1   
    54    26    27 1   
    55    26    55 1   
    56    26    56 1   
    57    27    28 1   
    58    27    31 1   
    59    27    57 1   
    60    28    29 1   
    61    28    58 1   
    62    28    69 1   
    63    29    30 1   
    64    29    59 1   
    65    29    60 1   
    66    30    31 1   
    67    30    61 1   
    68    31    32 1   
    69    32    62 1   
    70    32    63 1   
    71    32    64 1   
    72    33    34 1   
    73    33    65 1   
    74    33    66 1   
    75    35    67 1   
    76    36    68 1   
@<TRIPOS>SUBSTRUCTURE
     1 74S         1 TEMP              0 ****  ****    0 ROOT
