@<TRIPOS>MOLECULE
74T
  105   111     1     0     0
SMALL
abcg2


@<TRIPOS>ATOM
      1 N1           2.1950    -2.0020     0.9810 nc         1 74T      -0.658100
      2 C2           1.0160    -2.6850     0.9540 ca         1 74T       0.203400
      3 C3           0.0340    -2.2510     1.8660 ca         1 74T      -0.230000
      4 C4          -1.2140    -2.8380     1.9460 ca         1 74T       0.048000
      5 C5          -1.4770    -3.8940     1.0830 ca         1 74T      -0.328500
      6 C6          -0.5180    -4.3580     0.1790 ca         1 74T      -0.011000
      7 C7           0.7230    -3.7580     0.1110 ca         1 74T      -0.108000
      8 S8          -3.0990    -4.5910     1.0230 sy         1 74T       1.190600
      9 O9          -2.9710    -6.0320     0.8660 o          1 74T      -0.541000
     10 O10         -3.8360    -4.0620     2.1610 o          1 74T      -0.541000
     11 N11         -3.7930    -4.0080    -0.3460 n3         1 74T      -0.775500
     12 C12         -3.7640    -4.7660    -1.5960 c3         1 74T       0.223800
     13 C13         -5.1620    -5.1070    -2.1120 c3         1 74T      -0.068700
     14 C14         -5.0260    -5.8710    -3.4250 c3         1 74T      -0.090600
     15 C15         -5.9660    -5.8970    -1.0900 c3         1 74T      -0.090600
     16 C16         -4.1670    -2.6010    -0.3860 c3         1 74T       0.182800
     17 C17         -3.0860    -1.6500    -0.9120 c3         1 74T       0.123300
     18 O18         -2.9080    -1.7250    -2.3090 oh         1 74T      -0.652000
     19 C19         -3.3460    -0.2110    -0.4450 c3         1 74T       0.096700
     20 N20         -2.2300     0.6200    -0.8240 ns         1 74T      -0.490900
     21 C21         -1.6290     1.4690     0.0270 c          1 74T       0.645100
     22 C22          2.1690    -1.0650     1.8810 cd         1 74T       0.668100
     23 O22         -1.8670     1.5800     1.2090 o          1 74T      -0.532000
     24 O23         -0.6910     2.1850    -0.6150 os         1 74T      -0.452100
     25 S23          0.6630    -0.9220     2.7920 ss         1 74T      -0.012200
     26 C24          0.0170     3.1530     0.1370 c5         1 74T       0.168300
     27 N24          3.1800    -0.2360     2.1380 nu         1 74T      -0.871400
     28 C25          1.0010     2.5800     1.1550 c5         1 74T       0.121600
     29 O26          1.9330     3.6260     1.3520 os         1 74T      -0.452000
     30 C27          2.0560     4.3930     0.1800 c5         1 74T       0.374300
     31 O28          3.2830     4.1550    -0.4500 os         1 74T      -0.457000
     32 C29          3.0760     3.7530    -1.7960 c5         1 74T       0.152600
     33 C30          1.7060     3.0990    -1.8110 c5         1 74T      -0.105400
     34 C31          0.9460     3.9360    -0.7790 c5         1 74T      -0.131700
     35 C32         -4.6720     0.3680    -0.9680 c3         1 74T      -0.053100
     36 C33         -4.4680     2.8660    -1.2170 ca         1 74T      -0.099000
     37 C34         -4.6180     4.1580    -0.7280 ca         1 74T      -0.106000
     38 C35         -5.2020     4.3690     0.5140 ca         1 74T      -0.105000
     39 C36         -5.6360     3.2810     1.2610 ca         1 74T      -0.106000
     40 C37         -5.4790     1.9930     0.7700 ca         1 74T      -0.099000
     41 C38         -4.8930     1.7690    -0.4730 ca         1 74T      -0.087300
     42 C42          4.3770    -0.1890     1.3120 c6         1 74T       0.239500
     43 C43          5.4880     0.5390     2.0500 c6         1 74T      -0.099400
     44 C44          6.7230     0.6590     1.1680 c6         1 74T       0.173800
     45 N45          6.4290     1.3390    -0.0810 n3         1 74T      -0.713600
     46 C46          5.4150     0.6090    -0.8210 c6         1 74T       0.173800
     47 C47          4.1270     0.5030    -0.0220 c6         1 74T      -0.099400
     48 C48          7.6300     1.5730    -0.8660 c5         1 74T       0.179500
     49 C49          8.6500     2.4740    -0.1420 c5         1 74T      -0.080900
     50 C50          9.3740     3.2850    -1.2380 c5         1 74T      -0.078400
     51 C51          8.7760     2.8040    -2.5660 c5         1 74T      -0.078400
     52 C52          7.3860     2.3080    -2.1870 c5         1 74T      -0.080900
     53 H4          -1.9580    -2.4830     2.6470 ha         1 74T       0.149000
     54 H6          -0.7360    -5.1890    -0.4800 ha         1 74T       0.127000
     55 H7           1.4680    -4.1150    -0.5880 ha         1 74T       0.134000
     56 H12         -3.2140    -4.2000    -2.3500 h1         1 74T       0.062200
     57 H12A        -3.2160    -5.6940    -1.4400 h1         1 74T       0.062200
     58 H13         -5.6940    -4.1730    -2.3280 hc         1 74T       0.038700
     59 H14         -4.5180    -6.8270    -3.2720 hc         1 74T       0.038033
     60 H14A        -6.0040    -6.0840    -3.8570 hc         1 74T       0.038033
     61 H14B        -4.4540    -5.3050    -4.1630 hc         1 74T       0.038033
     62 H15         -5.4630    -6.8340    -0.8380 hc         1 74T       0.038033
     63 H15A        -6.1090    -5.3380    -0.1660 hc         1 74T       0.038033
     64 H15B        -6.9530    -6.1450    -1.4830 hc         1 74T       0.038033
     65 H16         -5.0730    -2.5240    -0.9960 h1         1 74T       0.070200
     66 H16A        -4.4680    -2.2890     0.6140 h1         1 74T       0.070200
     67 H17         -2.1240    -1.9440    -0.4870 h1         1 74T       0.096700
     68 HO18        -3.7530    -1.5770    -2.7480 ho         1 74T       0.440000
     69 H19         -3.3830    -0.2230     0.6460 h1         1 74T       0.093700
     70 HN20        -1.9760     0.6480    -1.8000 hn         1 74T       0.334500
     71 H24         -0.6830     3.8310     0.6360 h1         1 74T       0.077700
     72 HN24         3.0560     0.4860     2.8300 hn         1 74T       0.509000
     73 H25          0.5470     2.3320     2.1130 h1         1 74T       0.066700
     74 H25A         1.4760     1.6760     0.7520 h1         1 74T       0.066700
     75 H27          1.9980     5.4460     0.4730 h2         1 74T       0.088700
     76 H29          3.1040     4.6230    -2.4620 h1         1 74T       0.050200
     77 H29A         3.8820     3.0780    -2.0860 h1         1 74T       0.050200
     78 H30          1.2440     3.1190    -2.7960 hc         1 74T       0.065200
     79 H30A         1.7860     2.0540    -1.5020 hc         1 74T       0.065200
     80 H31          0.4490     4.7840    -1.2520 hc         1 74T       0.080700
     81 H32         -4.6770     0.3610    -2.0610 hc         1 74T       0.050700
     82 H32A        -5.4960    -0.2710    -0.6410 hc         1 74T       0.050700
     83 H34         -4.2840     5.0000    -1.3200 ha         1 74T       0.113000
     84 H35         -5.3240     5.3740     0.8950 ha         1 74T       0.113000
     85 H36         -6.0990     3.4380     2.2270 ha         1 74T       0.113000
     86 H37         -5.8180     1.1490     1.3610 ha         1 74T       0.109000
     87 H42          4.6920    -1.2200     1.1260 h1         1 74T       0.076700
     88 H43          5.1470     1.5420     2.3290 hc         1 74T       0.060450
     89 H43A         5.7490     0.0120     2.9710 hc         1 74T       0.060450
     90 H44          7.4840     1.2160     1.7160 h1         1 74T       0.032700
     91 H44A         7.1390    -0.3510     0.9910 h1         1 74T       0.032700
     92 H46          5.1990     1.1300    -1.7540 h1         1 74T       0.032700
     93 H46A         5.7660    -0.4010    -1.1000 h1         1 74T       0.032700
     94 H47          3.3780    -0.0390    -0.6030 hc         1 74T       0.060450
     95 H47A         3.7460     1.5110     0.1650 hc         1 74T       0.060450
     96 H48          8.1220     0.6120    -1.1130 h1         1 74T       0.018700
     97 H49          8.1140     3.1410     0.5370 hc         1 74T       0.048950
     98 H49A         9.3470     1.8950     0.4660 hc         1 74T       0.048950
     99 H50          9.1840     4.3510    -1.1050 hc         1 74T       0.042200
    100 H50A        10.4560     3.1540    -1.2050 hc         1 74T       0.042200
    101 H51          8.7580     3.5800    -3.3310 hc         1 74T       0.042200
    102 H51A         9.3610     1.9720    -2.9660 hc         1 74T       0.042200
    103 H52          6.9440     1.6800    -2.9620 hc         1 74T       0.048950
    104 H52A         6.7070     3.1500    -2.0130 hc         1 74T       0.048950
    105 H33         -4.0170     2.7100    -2.1900 ha         1 74T       0.109000
@<TRIPOS>BOND
     1     1     2 1   
     2     1    22 2   
     3     2     3 ar  
     4     2     7 ar  
     5     3     4 ar  
     6     3    25 1   
     7     4     5 ar  
     8     4    53 1   
     9     5     6 ar  
    10     5     8 1   
    11     6     7 ar  
    12     6    54 1   
    13     7    55 1   
    14     8     9 2   
    15     8    10 2   
    16     8    11 1   
    17    11    12 1   
    18    11    16 1   
    19    12    13 1   
    20    12    56 1   
    21    12    57 1   
    22    13    14 1   
    23    13    15 1   
    24    13    58 1   
    25    14    59 1   
    26    14    60 1   
    27    14    61 1   
    28    15    62 1   
    29    15    63 1   
    30    15    64 1   
    31    16    17 1   
    32    16    65 1   
    33    16    66 1   
    34    17    18 1   
    35    17    19 1   
    36    17    67 1   
    37    18    68 1   
    38    19    20 1   
    39    19    35 1   
    40    19    69 1   
    41    20    21 1   
    42    20    70 1   
    43    21    23 2   
    44    21    24 1   
    45    22    25 1   
    46    22    27 1   
    47    24    26 1   
    48    26    28 1   
    49    26    34 1   
    50    26    71 1   
    51    27    42 1   
    52    27    72 1   
    53    28    29 1   
    54    28    73 1   
    55    28    74 1   
    56    29    30 1   
    57    30    31 1   
    58    30    34 1   
    59    30    75 1   
    60    31    32 1   
    61    32    33 1   
    62    32    76 1   
    63    32    77 1   
    64    33    34 1   
    65    33    78 1   
    66    33    79 1   
    67    34    80 1   
    68    35    41 1   
    69    35    81 1   
    70    35    82 1   
    71    36    37 ar  
    72    36    41 ar  
    73    36   105 1   
    74    37    38 ar  
    75    37    83 1   
    76    38    39 ar  
    77    38    84 1   
    78    39    40 ar  
    79    39    85 1   
    80    40    41 ar  
    81    40    86 1   
    82    42    43 1   
    83    42    47 1   
    84    42    87 1   
    85    43    44 1   
    86    43    88 1   
    87    43    89 1   
    88    44    45 1   
    89    44    90 1   
    90    44    91 1   
    91    45    46 1   
    92    45    48 1   
    93    46    47 1   
    94    46    92 1   
    95    46    93 1   
    96    47    94 1   
    97    47    95 1   
    98    48    49 1   
    99    48    52 1   
   100    48    96 1   
   101    49    50 1   
   102    49    97 1   
   103    49    98 1   
   104    50    51 1   
   105    50    99 1   
   106    50   100 1   
   107    51    52 1   
   108    51   101 1   
   109    51   102 1   
   110    52   103 1   
   111    52   104 1   
@<TRIPOS>SUBSTRUCTURE
     1 74T         1 TEMP              0 ****  ****    0 ROOT
