@<TRIPOS>MOLECULE
74T
  105   111     1     0     0
SMALL
No Charge or Current Charge


@<TRIPOS>ATOM
      1 N1           2.1550    -2.1390     1.2460 nc         1 74T      -0.658100
      2 C2           0.9070    -2.7530     1.2740 ca         1 74T       0.203400
      3 C3          -0.0910    -2.1320     2.0040 ca         1 74T      -0.230000
      4 C4          -1.3890    -2.6550     2.1000 ca         1 74T       0.048000
      5 C5          -1.6800    -3.8540     1.4140 ca         1 74T      -0.328500
      6 C6          -0.6640    -4.5110     0.6820 ca         1 74T      -0.011000
      7 C7           0.6270    -3.9560     0.6100 ca         1 74T      -0.108000
      8 S8          -3.3380    -4.5430     1.4810 sy         1 74T       1.190600
      9 O9          -3.2580    -6.0080     1.5090 o          1 74T      -0.541000
     10 O10         -4.1300    -3.8300     2.4890 o          1 74T      -0.541000
     11 N11         -4.0190    -4.1400    -0.0390 n3         1 74T      -0.775500
     12 C12         -3.4370    -4.8440    -1.2110 c3         1 74T       0.223800
     13 C13         -4.3790    -4.9550    -2.4430 c3         1 74T      -0.068700
     14 C14         -3.6560    -5.6240    -3.6340 c3         1 74T      -0.090600
     15 C15         -5.6970    -5.6950    -2.1080 c3         1 74T      -0.090600
     16 C16         -4.3610    -2.7000    -0.2520 c3         1 74T       0.182800
     17 C17         -3.2140    -1.7410    -0.7320 c3         1 74T       0.123300
     18 O18         -3.0340    -1.8010    -2.1670 oh         1 74T      -0.652000
     19 C19         -3.4340    -0.2650    -0.2820 c3         1 74T       0.096700
     20 N20         -2.2600     0.5520    -0.6130 ns         1 74T      -0.490900
     21 C21         -1.6980     1.4860     0.2100 c          1 74T       0.645100
     22 C22          2.0380    -1.0340     1.9820 cd         1 74T       0.668100
     23 O22         -2.0440     1.7050     1.3600 o          1 74T      -0.532000
     24 O23         -0.7520     2.1720    -0.4990 os         1 74T      -0.452100
     25 S23          0.4780    -0.6560     2.7580 ss         1 74T      -0.012200
     26 C24         -0.1660     3.2980     0.2120 c5         1 74T       0.168300
     27 N24          3.1300    -0.2260     2.1260 nu         1 74T      -0.871400
     28 C25          0.8480     2.8160     1.2850 c5         1 74T       0.121600
     29 O26          1.6730     3.9830     1.4830 os         1 74T      -0.452000
     30 C27          1.9150     4.5900     0.1950 c5         1 74T       0.374300
     31 O28          3.1380     4.0440    -0.3330 os         1 74T      -0.457000
     32 C29          2.9320     3.7910    -1.7320 c5         1 74T       0.152600
     33 C30          1.5450     3.1210    -1.7340 c5         1 74T      -0.105400
     34 C31          0.7790     4.0850    -0.7560 c5         1 74T      -0.131700
     35 C32         -4.7310     0.3910    -0.8370 c3         1 74T      -0.053100
     36 C33         -4.5670     2.9170    -1.1270 ca         1 74T      -0.099000
     37 C34         -4.7460     4.2270    -0.6510 ca         1 74T      -0.106000
     38 C35         -5.3020     4.4450     0.6200 ca         1 74T      -0.105000
     39 C36         -5.6800     3.3500     1.4170 ca         1 74T      -0.106000
     40 C37         -5.5000     2.0390     0.9420 ca         1 74T      -0.099000
     41 C38         -4.9420     1.8150    -0.3320 ca         1 74T      -0.087300
     42 C42          4.3140    -0.2780     1.2520 c6         1 74T       0.239500
     43 C43          5.5030     0.4110     1.9440 c6         1 74T      -0.099400
     44 C44          6.7290     0.4510     1.0040 c6         1 74T       0.173800
     45 N45          6.4260     1.1440    -0.2870 n3         1 74T      -0.713600
     46 C46          5.2760     0.4750    -0.9700 c6         1 74T       0.173800
     47 C47          4.0170     0.4350    -0.0800 c6         1 74T      -0.099400
     48 C48          7.6230     1.3650    -1.1670 c5         1 74T       0.179500
     49 C49          8.6330     2.2880    -0.4260 c5         1 74T      -0.080900
     50 C50          9.5170     2.8380    -1.5860 c5         1 74T      -0.078400
     51 C51          8.6290     2.7260    -2.8660 c5         1 74T      -0.078400
     52 C52          7.2310     2.3160    -2.3320 c5         1 74T      -0.080900
     53 H4          -2.1480    -2.1320     2.6810 ha         1 74T       0.149000
     54 H6          -0.8700    -5.4460     0.1650 ha         1 74T       0.127000
     55 H7           1.4060    -4.4550     0.0410 ha         1 74T       0.134000
     56 H12         -2.5040    -4.3530    -1.5200 h1         1 74T       0.062200
     57 H12A        -3.1650    -5.8730    -0.9430 h1         1 74T       0.062200
     58 H13         -4.6470    -3.9440    -2.7700 hc         1 74T       0.038700
     59 H14         -3.3640    -6.6520    -3.3870 hc         1 74T       0.038033
     60 H14A        -4.3070    -5.6550    -4.5160 hc         1 74T       0.038033
     61 H14B        -2.7510    -5.0650    -3.9010 hc         1 74T       0.038033
     62 H15         -5.4940    -6.7160    -1.7640 hc         1 74T       0.038033
     63 H15A        -6.2510    -5.1710    -1.3200 hc         1 74T       0.038033
     64 H15B        -6.3450    -5.7520    -2.9910 hc         1 74T       0.038033
     65 H16         -5.1790    -2.6300    -0.9810 h1         1 74T       0.070200
     66 H16A        -4.7840    -2.2850     0.6730 h1         1 74T       0.070200
     67 H17         -2.2850    -2.0640    -0.2540 h1         1 74T       0.096700
     68 HO18        -3.8760    -1.5290    -2.5880 ho         1 74T       0.440000
     69 H19         -3.5250    -0.2820     0.8130 h1         1 74T       0.093700
     70 HN20        -1.8680     0.4860    -1.5430 hn         1 74T       0.334500
     71 H24         -0.9470     3.9470     0.6350 h1         1 74T       0.077700
     72 HN24         2.9760     0.5930     2.7080 hn         1 74T       0.509000
     73 H25          0.3690     2.5330     2.2310 h1         1 74T       0.066700
     74 H25A         1.4670     1.9830     0.9300 h1         1 74T       0.066700
     75 H27          1.9610     5.6860     0.2630 h2         1 74T       0.088700
     76 H29          2.9350     4.7430    -2.2820 h1         1 74T       0.050200
     77 H29A         3.7270     3.1430    -2.1230 h1         1 74T       0.050200
     78 H30          1.0950     3.0870    -2.7320 hc         1 74T       0.065200
     79 H30A         1.6260     2.0890    -1.3750 hc         1 74T       0.065200
     80 H31          0.2760     4.9090    -1.2740 hc         1 74T       0.080700
     81 H32         -4.7020     0.3890    -1.9330 hc         1 74T       0.050700
     82 H32A        -5.5990    -0.2190    -0.5580 hc         1 74T       0.050700
     83 H34         -4.4510     5.0740    -1.2680 ha         1 74T       0.113000
     84 H35         -5.4400     5.4590     0.9890 ha         1 74T       0.113000
     85 H36         -6.1090     3.5170     2.4020 ha         1 74T       0.113000
     86 H37         -5.7890     1.1970     1.5670 ha         1 74T       0.109000
     87 H42          4.6010    -1.3210     1.0400 h1         1 74T       0.076700
     88 H43          5.2360     1.4370     2.2320 hc         1 74T       0.060450
     89 H43A         5.7630    -0.1240     2.8670 hc         1 74T       0.060450
     90 H44          7.5400     0.9570     1.5450 h1         1 74T       0.032700
     91 H44A         7.0680    -0.5780     0.8090 h1         1 74T       0.032700
     92 H46          5.0030     1.0000    -1.8950 h1         1 74T       0.032700
     93 H46A         5.5500    -0.5520    -1.2540 h1         1 74T       0.032700
     94 H47          3.2040    -0.0750    -0.6130 hc         1 74T       0.060450
     95 H47A         3.6790     1.4600     0.1140 hc         1 74T       0.060450
     96 H48          8.0800     0.4290    -1.5180 h1         1 74T       0.018700
     97 H49          8.1240     3.1070     0.0970 hc         1 74T       0.048950
     98 H49A         9.2350     1.7510     0.3140 hc         1 74T       0.048950
     99 H50          9.8270     3.8710    -1.3920 hc         1 74T       0.042200
    100 H50A        10.4350     2.2490    -1.6990 hc         1 74T       0.042200
    101 H51          8.5940     3.6640    -3.4300 hc         1 74T       0.042200
    102 H51A         9.0260     1.9610    -3.5440 hc         1 74T       0.042200
    103 H52          6.6400     1.8230    -3.1110 hc         1 74T       0.048950
    104 H52A         6.6620     3.1860    -1.9820 hc         1 74T       0.048950
    105 H33         -4.1300     2.7580    -2.1100 ha         1 74T       0.109000
@<TRIPOS>BOND
     1     1     2 1   
     2     1    22 2   
     3     2     3 ar  
     4     2     7 ar  
     5     3     4 ar  
     6     3    25 1   
     7     4     5 ar  
     8     4    53 1   
     9     5     6 ar  
    10     5     8 1   
    11     6     7 ar  
    12     6    54 1   
    13     7    55 1   
    14     8     9 2   
    15     8    10 2   
    16     8    11 1   
    17    11    12 1   
    18    11    16 1   
    19    12    13 1   
    20    12    56 1   
    21    12    57 1   
    22    13    14 1   
    23    13    15 1   
    24    13    58 1   
    25    14    59 1   
    26    14    60 1   
    27    14    61 1   
    28    15    62 1   
    29    15    63 1   
    30    15    64 1   
    31    16    17 1   
    32    16    65 1   
    33    16    66 1   
    34    17    18 1   
    35    17    19 1   
    36    17    67 1   
    37    18    68 1   
    38    19    20 1   
    39    19    35 1   
    40    19    69 1   
    41    20    21 1   
    42    20    70 1   
    43    21    23 2   
    44    21    24 1   
    45    22    25 1   
    46    22    27 1   
    47    24    26 1   
    48    26    28 1   
    49    26    34 1   
    50    26    71 1   
    51    27    42 1   
    52    27    72 1   
    53    28    29 1   
    54    28    73 1   
    55    28    74 1   
    56    29    30 1   
    57    30    31 1   
    58    30    34 1   
    59    30    75 1   
    60    31    32 1   
    61    32    33 1   
    62    32    76 1   
    63    32    77 1   
    64    33    34 1   
    65    33    78 1   
    66    33    79 1   
    67    34    80 1   
    68    35    41 1   
    69    35    81 1   
    70    35    82 1   
    71    36    37 ar  
    72    36    41 ar  
    73    36   105 1   
    74    37    38 ar  
    75    37    83 1   
    76    38    39 ar  
    77    38    84 1   
    78    39    40 ar  
    79    39    85 1   
    80    40    41 ar  
    81    40    86 1   
    82    42    43 1   
    83    42    47 1   
    84    42    87 1   
    85    43    44 1   
    86    43    88 1   
    87    43    89 1   
    88    44    45 1   
    89    44    90 1   
    90    44    91 1   
    91    45    46 1   
    92    45    48 1   
    93    46    47 1   
    94    46    92 1   
    95    46    93 1   
    96    47    94 1   
    97    47    95 1   
    98    48    49 1   
    99    48    52 1   
   100    48    96 1   
   101    49    50 1   
   102    49    97 1   
   103    49    98 1   
   104    50    51 1   
   105    50    99 1   
   106    50   100 1   
   107    51    52 1   
   108    51   101 1   
   109    51   102 1   
   110    52   103 1   
   111    52   104 1   
@<TRIPOS>SUBSTRUCTURE
     1 74T         1 TEMP              0 ****  ****    0 ROOT
