@<TRIPOS>MOLECULE
74U
   38    41     1     0     0
SMALL
No Charge or Current Charge


@<TRIPOS>ATOM
      1 C5           1.2520    -0.0960     0.0220 cp         1 74U       0.249500
      2 C7           0.9390    -2.3930    -0.0990 ca         1 74U       0.062000
      3 C8           1.3580    -3.6730    -0.5100 ca         1 74U      -0.100000
      4 C10         -0.6210    -4.6720     0.4890 ca         1 74U      -0.128000
      5 C13          2.0900     1.1110    -0.3260 cp         1 74U      -0.151500
      6 C15          4.1150     2.1050    -1.3260 ca         1 74U      -0.130500
      7 C17          2.4450     3.5520    -0.3240 ca         1 74U      -0.130500
      8 C20         -3.5500     1.0380    -0.2660 cc         1 74U      -0.175000
      9 C21         -3.5410     2.1230    -1.1630 cc         1 74U      -0.193000
     10 C22         -2.7530     3.0860    -0.5970 cd         1 74U       0.129900
     11 C1          -2.4000     0.6380     2.0470 c3         1 74U       0.205500
     12 C3          -0.6510    -0.9520     1.0050 ca         1 74U       0.416900
     13 N4           0.1150     0.1110     0.7110 nb         1 74U      -0.286000
     14 N6           1.6850    -1.3080    -0.3850 nb         1 74U      -0.217000
     15 C9           0.5840    -4.8080    -0.2180 ca         1 74U      -0.082000
     16 C11         -1.0540    -3.4030     0.9060 ca         1 74U      -0.070000
     17 C12         -0.2760    -2.2580     0.6150 ca         1 74U      -0.180000
     18 C14          3.3380     0.9800    -1.0010 ca         1 74U      -0.065500
     19 C16          3.6700     3.3920    -0.9880 ca         1 74U      -0.094000
     20 C18          1.6660     2.4300     0.0030 ca         1 74U      -0.065500
     21 C19         -2.7650     1.4070     0.7930 cd         1 74U       0.088300
     22 O23         -2.2570     2.6780     0.6220 os         1 74U      -0.216000
     23 H1           2.2900    -3.7850    -1.0590 ha         1 74U       0.133000
     24 H2          -1.2200    -5.5520     0.7140 ha         1 74U       0.116000
     25 H3           5.0640     1.9780    -1.8410 ha         1 74U       0.112500
     26 H4           2.0970     4.5490    -0.0620 ha         1 74U       0.112500
     27 H6          -4.0590     2.1730    -2.1160 ha         1 74U       0.142000
     28 H7          -2.4760     4.0730    -0.9470 h4         1 74U       0.055100
     29 H8          -3.3070     0.5220     2.6570 h1         1 74U       0.077700
     30 H9          -1.6830     1.2280     2.6350 h1         1 74U       0.077700
     31 H11          0.9180    -5.7920    -0.5410 ha         1 74U       0.116000
     32 H12         -1.9900    -3.3280     1.4520 ha         1 74U       0.104000
     33 H13          3.7150    -0.0020    -1.2780 ha         1 74U       0.134000
     34 H14          4.2730     4.2620    -1.2410 ha         1 74U       0.110000
     35 H15          0.7200     2.5940     0.5160 ha         1 74U       0.134000
     36 N2          -1.8280    -0.6900     1.7100 nu         1 74U      -0.926100
     37 H5          -4.0730     0.0960    -0.4010 ha         1 74U       0.138000
     38 H10         -2.3980    -1.5070     1.9230 hn         1 74U       0.497000
@<TRIPOS>BOND
     1     1     5 1   
     2     1    13 ar  
     3     1    14 ar  
     4     2     3 ar  
     5     2    14 ar  
     6     2    17 ar  
     7     3    15 ar  
     8     3    23 1   
     9     4    15 ar  
    10     4    16 ar  
    11     4    24 1   
    12     5    18 ar  
    13     5    20 ar  
    14     6    18 ar  
    15     6    19 ar  
    16     6    25 1   
    17     7    19 ar  
    18     7    20 ar  
    19     7    26 1   
    20     8     9 1   
    21     8    21 2   
    22     8    37 1   
    23     9    10 2   
    24     9    27 1   
    25    10    22 1   
    26    10    28 1   
    27    11    21 1   
    28    11    29 1   
    29    11    30 1   
    30    11    36 1   
    31    12    13 ar  
    32    12    17 ar  
    33    12    36 1   
    34    15    31 1   
    35    16    17 ar  
    36    16    32 1   
    37    18    33 1   
    38    19    34 1   
    39    20    35 1   
    40    21    22 1   
    41    36    38 1   
@<TRIPOS>SUBSTRUCTURE
     1 74U         1 TEMP              0 ****  ****    0 ROOT
