@<TRIPOS>MOLECULE
74U
   38    41     1     0     0
SMALL
abcg2


@<TRIPOS>ATOM
      1 C5           1.4440    -0.0880     0.0200 cp         1 74U       0.249500
      2 C7           1.1110    -2.3260    -0.1550 ca         1 74U       0.062000
      3 C8           1.5730    -3.6010    -0.5400 ca         1 74U      -0.100000
      4 C10         -0.4770    -4.5960     0.2490 ca         1 74U      -0.128000
      5 C13          2.2960     1.1050    -0.2000 cp         1 74U      -0.151500
      6 C15          4.4060     2.0800    -0.8560 ca         1 74U      -0.130500
      7 C17          2.5910     3.5020    -0.1830 ca         1 74U      -0.130500
      8 C20         -4.3190     1.7340     0.6120 cc         1 74U      -0.175000
      9 C21         -4.5210     2.2860    -0.6920 cc         1 74U      -0.193000
     10 C22         -3.3370     2.1620    -1.3330 cd         1 74U       0.129900
     11 C1          -2.2240     0.6770     1.7280 c3         1 74U       0.205500
     12 C3          -0.5590    -0.8750     0.7960 ca         1 74U       0.416900
     13 N4           0.2500     0.1410     0.5890 nb         1 74U      -0.286000
     14 N6           1.9090    -1.2480    -0.3620 nb         1 74U      -0.217000
     15 C9           0.7930    -4.7110    -0.3400 ca         1 74U      -0.082000
     16 C11         -0.9480    -3.3640     0.6290 ca         1 74U      -0.070000
     17 C12         -0.1660    -2.2130     0.4320 ca         1 74U      -0.180000
     18 C14          3.6100     0.9640    -0.6460 ca         1 74U      -0.065500
     19 C16          3.8990     3.3530    -0.6250 ca         1 74U      -0.094000
     20 C18          1.7950     2.3860     0.0310 ca         1 74U      -0.065500
     21 C19         -3.0270     1.3270     0.6570 cd         1 74U       0.088300
     22 O23         -2.4240     1.5860    -0.5230 os         1 74U      -0.216000
     23 H1           2.5530    -3.6800    -0.9930 ha         1 74U       0.133000
     24 H2          -1.0820    -5.4790     0.4050 ha         1 74U       0.116000
     25 H3           5.4250     1.9550    -1.1990 ha         1 74U       0.112500
     26 H4           2.1880     4.4900    -0.0040 ha         1 74U       0.112500
     27 H6          -5.4270     2.7110    -1.0910 ha         1 74U       0.142000
     28 H7          -3.0060     2.4270    -2.3240 h4         1 74U       0.055100
     29 H8          -2.8570     0.5800     2.6100 h1         1 74U       0.077700
     30 H9          -1.3710     1.2930     2.0100 h1         1 74U       0.077700
     31 H11          1.1590    -5.6860    -0.6340 ha         1 74U       0.116000
     32 H12         -1.9290    -3.3030     1.0840 ha         1 74U       0.104000
     33 H13          4.0070    -0.0250    -0.8300 ha         1 74U       0.134000
     34 H14          4.5190     4.2240    -0.7910 ha         1 74U       0.110000
     35 H15          0.7740     2.5050     0.3700 ha         1 74U       0.134000
     36 N2          -1.7470    -0.6410     1.3700 nu         1 74U      -0.926100
     37 H5          -5.0420     1.6500     1.4070 ha         1 74U       0.138000
     38 H10         -2.4080    -1.3940     1.4510 hn         1 74U       0.497000
@<TRIPOS>BOND
     1     1     5 1   
     2     1    13 ar  
     3     1    14 ar  
     4     2     3 ar  
     5     2    14 ar  
     6     2    17 ar  
     7     3    15 ar  
     8     3    23 1   
     9     4    15 ar  
    10     4    16 ar  
    11     4    24 1   
    12     5    18 ar  
    13     5    20 ar  
    14     6    18 ar  
    15     6    19 ar  
    16     6    25 1   
    17     7    19 ar  
    18     7    20 ar  
    19     7    26 1   
    20     8     9 1   
    21     8    21 2   
    22     8    37 1   
    23     9    10 2   
    24     9    27 1   
    25    10    22 1   
    26    10    28 1   
    27    11    21 1   
    28    11    29 1   
    29    11    30 1   
    30    11    36 1   
    31    12    13 ar  
    32    12    17 ar  
    33    12    36 1   
    34    15    31 1   
    35    16    17 ar  
    36    16    32 1   
    37    18    33 1   
    38    19    34 1   
    39    20    35 1   
    40    21    22 1   
    41    36    38 1   
@<TRIPOS>SUBSTRUCTURE
     1 74U         1 TEMP              0 ****  ****    0 ROOT
