@<TRIPOS>MOLECULE
74V
   50    52     1     0     0
SMALL
abcg2


@<TRIPOS>ATOM
      1 N3          -1.9800    -0.8080     0.3910 n          1 74V      -0.397800
      2 C4          -3.1590     0.0620     0.2820 c6         1 74V       0.081700
      3 C5          -2.9030     1.5420     0.5690 c6         1 74V      -0.093400
      4 C6          -4.2210     2.3110     0.5000 c6         1 74V      -0.111400
      5 C7          -4.9350     2.0460    -0.8230 c6         1 74V       0.147800
      6 C10         -0.9430    -0.6670    -0.4570 c          1 74V       0.626700
      7 C13          0.0150    -2.9810    -0.6400 ca         1 74V       0.164900
      8 C15          2.2240    -3.3840    -0.4380 ca         1 74V       0.194300
      9 C20          3.2060     0.4940     0.2920 c3         1 74V       0.212500
     10 C21          3.2820     1.9730     0.3580 cc         1 74V       0.086300
     11 C22          3.5960     2.8250     1.3630 cd         1 74V      -0.159000
     12 C24          3.1590     3.9830    -0.4800 cc         1 74V       0.136900
     13 C2          -1.8850    -1.6330     1.5960 c3         1 74V       0.105000
     14 N8          -5.1430     0.6330    -1.1020 n7         1 74V      -0.843400
     15 C9          -3.9030    -0.1220    -1.0480 c6         1 74V       0.140800
     16 O11         -0.8760     0.2100    -1.3130 o          1 74V      -0.605100
     17 C12          0.1820    -1.6460    -0.3650 ca         1 74V      -0.332600
     18 N14          1.0140    -3.8650    -0.6860 nb         1 74V      -0.226000
     19 N17          2.5130    -2.1150    -0.1760 nb         1 74V      -0.285000
     20 C18          1.5200    -1.2270    -0.1550 ca         1 74V       0.425900
     21 N19          1.8370     0.0510     0.0970 nu         1 74V      -0.922100
     22 C23          3.5190     4.1420     0.8140 cd         1 74V      -0.194000
     23 O25          3.0150     2.6730    -0.7690 os         1 74V      -0.231000
     24 H1          -3.8400    -0.2960     1.0600 h1         1 74V       0.040700
     25 H2          -2.4490     1.6600     1.5560 hc         1 74V       0.056200
     26 H3          -2.2020     1.9550    -0.1580 hc         1 74V       0.056200
     27 H4          -4.8720     2.0130     1.3290 hc         1 74V       0.042700
     28 H5          -4.0370     3.3810     0.6190 hc         1 74V       0.042700
     29 H6          -5.9040     2.5510    -0.8410 h1         1 74V       0.056200
     30 H7          -4.3460     2.4700    -1.6430 h1         1 74V       0.056200
     31 H8          -0.9780    -3.3690    -0.8440 h4         1 74V       0.022100
     32 H9           3.8370     0.1130    -0.5160 h1         1 74V       0.072200
     33 H10          3.6130     0.0930     1.2230 h1         1 74V       0.072200
     34 H11          3.8520     2.5470     2.3730 ha         1 74V       0.143000
     35 H12          2.9740     4.6790    -1.2820 h4         1 74V       0.056100
     36 H13         -1.1390    -1.5670     3.6160 hc         1 74V       0.043033
     37 H14         -0.1700    -0.6400     2.4720 hc         1 74V       0.043033
     38 H15         -1.7220    -0.0090     3.0300 hc         1 74V       0.043033
     39 H16         -2.8970    -1.9120     1.8830 h1         1 74V       0.053700
     40 H17         -1.3700    -2.5630     1.3750 h1         1 74V       0.053700
     41 H18         -5.7950     0.2540    -0.4250 hn         1 74V       0.399000
     42 H20         -3.2740     0.1950    -1.8810 h1         1 74V       0.069700
     43 H21         -4.1260    -1.1820    -1.1960 h1         1 74V       0.069700
     44 H22          3.7870    -4.4390     0.5620 hc         1 74V       0.059367
     45 H23          3.0620    -5.3240    -0.7870 hc         1 74V       0.059367
     46 H24          4.1760    -3.9760    -1.0840 hc         1 74V       0.059367
     47 H25          1.1160     0.7500     0.0360 hn         1 74V       0.519000
     48 H26          3.7080     5.0750     1.3180 ha         1 74V       0.144000
     49 C16          3.3730    -4.3410    -0.4440 c3         1 74V      -0.137400
     50 C1          -1.1900    -0.9170     2.7430 c3         1 74V      -0.119100
@<TRIPOS>BOND
     1     1     2 1   
     2     1     6 1   
     3     1    13 1   
     4     2     3 1   
     5     2    15 1   
     6     2    24 1   
     7     3     4 1   
     8     3    25 1   
     9     3    26 1   
    10     4     5 1   
    11     4    27 1   
    12     4    28 1   
    13     5    14 1   
    14     5    29 1   
    15     5    30 1   
    16     6    16 2   
    17     6    17 1   
    18     7    17 ar  
    19     7    18 ar  
    20     7    31 1   
    21     8    18 ar  
    22     8    19 ar  
    23     8    49 1   
    24     9    10 1   
    25     9    21 1   
    26     9    32 1   
    27     9    33 1   
    28    10    11 2   
    29    10    23 1   
    30    11    22 1   
    31    11    34 1   
    32    12    22 2   
    33    12    23 1   
    34    12    35 1   
    35    13    39 1   
    36    13    40 1   
    37    13    50 1   
    38    14    15 1   
    39    14    41 1   
    40    15    42 1   
    41    15    43 1   
    42    17    20 ar  
    43    19    20 ar  
    44    20    21 1   
    45    21    47 1   
    46    22    48 1   
    47    36    50 1   
    48    37    50 1   
    49    38    50 1   
    50    44    49 1   
    51    45    49 1   
    52    46    49 1   
@<TRIPOS>SUBSTRUCTURE
     1 74V         1 TEMP              0 ****  ****    0 ROOT
