@<TRIPOS>MOLECULE
74V
   50    52     1     0     0
SMALL
No Charge or Current Charge


@<TRIPOS>ATOM
      1 N3          -1.9230    -0.7820     0.5730 n          1 74V      -0.397800
      2 C4          -3.1660     0.0130     0.3270 c6         1 74V       0.081700
      3 C5          -3.1280     1.4640     0.8870 c6         1 74V      -0.093400
      4 C6          -4.4790     2.1750     0.6240 c6         1 74V      -0.111400
      5 C7          -4.8670     2.1080    -0.8750 c6         1 74V       0.147800
      6 C10         -0.7050    -0.4890    -0.0970 c          1 74V       0.626700
      7 C13          0.0230    -2.9060    -0.3400 ca         1 74V       0.164900
      8 C15          2.2480    -3.4530    -0.3920 ca         1 74V       0.194300
      9 C20          3.5360     0.5810    -0.2050 c3         1 74V       0.212500
     10 C21          3.5800     2.0820    -0.0440 cc         1 74V       0.086300
     11 C22          4.0210     2.8620     0.9900 cd         1 74V      -0.159000
     12 C24          3.2600     4.1910    -0.6390 cc         1 74V       0.136900
     13 C2          -1.9430    -1.7180     1.7350 c3         1 74V       0.105000
     14 N8          -4.9220     0.7030    -1.3510 n7         1 74V      -0.843400
     15 C9          -3.6290    -0.0150    -1.1610 c6         1 74V       0.140800
     16 O11         -0.5440     0.5710    -0.6870 o          1 74V      -0.605100
     17 C12          0.3550    -1.5470    -0.1820 ca         1 74V      -0.332600
     18 N14          0.9650    -3.8630    -0.4370 nb         1 74V      -0.226000
     19 N17          2.6700    -2.1800    -0.2710 nb         1 74V      -0.285000
     20 C18          1.7210    -1.2330    -0.1800 ca         1 74V       0.425900
     21 N19          2.1530     0.0780    -0.0780 nu         1 74V      -0.922100
     22 C23          3.8180     4.2040     0.6100 cd         1 74V      -0.194000
     23 O25          3.1050     2.8880    -1.0580 os         1 74V      -0.231000
     24 H1          -3.9690    -0.4970     0.8800 h1         1 74V       0.040700
     25 H2          -2.9130     1.4620     1.9630 hc         1 74V       0.056200
     26 H3          -2.3230     2.0390     0.4120 hc         1 74V       0.056200
     27 H4          -5.2680     1.7100     1.2310 hc         1 74V       0.042700
     28 H5          -4.4170     3.2230     0.9440 hc         1 74V       0.042700
     29 H6          -5.8460     2.5890    -1.0240 h1         1 74V       0.056200
     30 H7          -4.1310     2.6710    -1.4700 h1         1 74V       0.056200
     31 H8          -1.0120    -3.2410    -0.3990 h4         1 74V       0.022100
     32 H9           3.9500     0.3190    -1.1890 h1         1 74V       0.072200
     33 H10          4.1810     0.1240     0.5590 h1         1 74V       0.072200
     34 H11          4.4440     2.5060     1.9250 ha         1 74V       0.143000
     35 H12          2.9420     4.9830    -1.3050 h4         1 74V       0.056100
     36 H13         -2.1380    -1.7850     3.9010 hc         1 74V       0.043033
     37 H14         -1.5090    -0.2430     3.2840 hc         1 74V       0.043033
     38 H15         -3.2420    -0.6350     3.1290 hc         1 74V       0.043033
     39 H16         -2.6990    -2.4920     1.5480 h1         1 74V       0.053700
     40 H17         -0.9770    -2.2240     1.8410 h1         1 74V       0.053700
     41 H18         -5.6480     0.2120    -0.8130 hn         1 74V       0.399000
     42 H20         -2.8610     0.4510    -1.7960 h1         1 74V       0.069700
     43 H21         -3.7330    -1.0600    -1.4900 h1         1 74V       0.069700
     44 H22          3.6180    -4.8640     0.5110 hc         1 74V       0.059367
     45 H23          2.9620    -5.4000    -1.0450 hc         1 74V       0.059367
     46 H24          4.2140    -4.1520    -0.9980 hc         1 74V       0.059367
     47 H25          1.4000     0.7550    -0.2410 hn         1 74V       0.519000
     48 H26          4.0550     5.0880     1.1930 ha         1 74V       0.144000
     49 C16          3.3180    -4.5250    -0.4870 c3         1 74V      -0.137400
     50 C1          -2.2280    -1.0490     3.0930 c3         1 74V      -0.119100
@<TRIPOS>BOND
     1     1     2 1   
     2     1     6 1   
     3     1    13 1   
     4     2     3 1   
     5     2    15 1   
     6     2    24 1   
     7     3     4 1   
     8     3    25 1   
     9     3    26 1   
    10     4     5 1   
    11     4    27 1   
    12     4    28 1   
    13     5    14 1   
    14     5    29 1   
    15     5    30 1   
    16     6    16 2   
    17     6    17 1   
    18     7    17 ar  
    19     7    18 ar  
    20     7    31 1   
    21     8    18 ar  
    22     8    19 ar  
    23     8    49 1   
    24     9    10 1   
    25     9    21 1   
    26     9    32 1   
    27     9    33 1   
    28    10    11 2   
    29    10    23 1   
    30    11    22 1   
    31    11    34 1   
    32    12    22 2   
    33    12    23 1   
    34    12    35 1   
    35    13    39 1   
    36    13    40 1   
    37    13    50 1   
    38    14    15 1   
    39    14    41 1   
    40    15    42 1   
    41    15    43 1   
    42    17    20 ar  
    43    19    20 ar  
    44    20    21 1   
    45    21    47 1   
    46    22    48 1   
    47    36    50 1   
    48    37    50 1   
    49    38    50 1   
    50    44    49 1   
    51    45    49 1   
    52    46    49 1   
@<TRIPOS>SUBSTRUCTURE
     1 74V         1 TEMP              0 ****  ****    0 ROOT
