@<TRIPOS>MOLECULE
74W
   49    51     1     0     0
SMALL
No Charge or Current Charge


@<TRIPOS>ATOM
      1 OAC          4.9230     0.9340     1.5640 o          1 74W      -0.567000
      2 CAZ          5.4900     0.8270     0.4890 c          1 74W       0.622000
      3 NAR          6.5530     1.6270     0.2140 ns         1 74W      -0.468500
      4 CAY          7.3410     1.6410    -0.8910 c          1 74W       0.586200
      5 OAB          8.2690     2.4270    -0.9910 o          1 74W      -0.522000
      6 CAU          6.9690     0.6370    -1.9120 cc         1 74W      -0.257400
      7 CAA          7.8240     0.6080    -3.1590 c3         1 74W      -0.021900
      8 CAM          5.8940    -0.1980    -1.6920 cd         1 74W      -0.008400
      9 NBD          5.1490    -0.1090    -0.5160 n          1 74W      -0.323000
     10 CBC          3.9580    -0.9890    -0.3690 c5         1 74W       0.356700
     11 OAS          2.8340    -0.3360     0.2470 os         1 74W      -0.463000
     12 CAO          4.3520    -2.1930     0.5440 c5         1 74W      -0.152400
     13 CBA          3.4110    -2.0100     1.7660 c5         1 74W       0.149300
     14 OAD          3.0830    -3.2590     2.3800 oh         1 74W      -0.699000
     15 CBB          2.1950    -1.3240     1.0790 c5         1 74W       0.143300
     16 CAN          1.1920    -0.6510     2.0450 c3         1 74W       0.109000
     17 NAP          0.1110     0.0900     1.3770 ns         1 74W      -0.437900
     18 CAT         -0.9860    -0.4550     0.7720 cs         1 74W       0.471400
     19 SAE         -1.2830    -2.1010     0.7310 s          1 74W      -0.628400
     20 NAQ         -1.7530     0.5040     0.1630 ns         1 74W      -0.374100
     21 CAV         -2.9980     0.4690    -0.5130 ca         1 74W       0.063600
     22 CAL         -3.9980    -0.4820    -0.2200 ca         1 74W      -0.038000
     23 CAJ         -3.2510     1.4550    -1.4800 ca         1 74W      -0.111000
     24 CAK         -4.4740     1.4730    -2.1690 ca         1 74W      -0.096000
     25 CAW         -5.4620     0.5150    -1.8930 ca         1 74W       0.150000
     26 Cl          -6.9720     0.6070    -2.8020 cl         1 74W      -0.166000
     27 CAX         -5.2380    -0.4770    -0.9070 ca         1 74W      -0.176300
     28 CBE         -6.3160    -1.5230    -0.5780 c3         1 74W       0.365300
     29 FAF         -6.6340    -2.2720    -1.6580 f          1 74W      -0.106333
     30 FAG         -5.9340    -2.3910     0.3860 f          1 74W      -0.106333
     31 FAH         -7.4570    -0.9460    -0.1390 f          1 74W      -0.106333
     32 HAR          6.7920     2.2920     0.9310 hn         1 74W       0.343500
     33 HAA1         7.7900     1.5710    -3.6830 hc         1 74W       0.049367
     34 HAA2         8.8710     0.3920    -2.9140 hc         1 74W       0.049367
     35 HAA3         7.4820    -0.1640    -3.8590 hc         1 74W       0.049367
     36 HAM          5.5570    -0.9580    -2.3940 h4         1 74W       0.205000
     37 HBC          3.6790    -1.3410    -1.3710 h2         1 74W       0.066700
     38 HAO1         4.1600    -3.1370     0.0210 hc         1 74W       0.075200
     39 HAO2         5.4100    -2.1960     0.8330 hc         1 74W       0.075200
     40 HBB          1.6550    -2.0370     0.4410 h1         1 74W       0.095700
     41 HBA          3.8590    -1.3240     2.5010 h1         1 74W       0.069700
     42 HAD          3.9130    -3.6170     2.7740 ho         1 74W       0.512000
     43 HAN1         0.7530    -1.4210     2.6930 h1         1 74W       0.089200
     44 HAN2         1.7430     0.0450     2.6920 h1         1 74W       0.089200
     45 HAP          0.2180     1.0960     1.3220 hn         1 74W       0.310500
     46 HAQ         -1.3620     1.4360     0.2140 hn         1 74W       0.309500
     47 HAL         -3.8180    -1.2130     0.5610 ha         1 74W       0.165000
     48 HAJ         -2.4970     2.2050    -1.7090 ha         1 74W       0.121000
     49 HAK         -4.6580     2.2340    -2.9230 ha         1 74W       0.137000
@<TRIPOS>BOND
     1     1     2 2   
     2     2     3 1   
     3     2     9 1   
     4     3     4 1   
     5     3    32 1   
     6     4     5 2   
     7     4     6 1   
     8     6     7 1   
     9     6     8 2   
    10     7    33 1   
    11     7    34 1   
    12     7    35 1   
    13     8     9 1   
    14     8    36 1   
    15     9    10 1   
    16    10    11 1   
    17    10    12 1   
    18    10    37 1   
    19    11    15 1   
    20    12    13 1   
    21    12    38 1   
    22    12    39 1   
    23    13    14 1   
    24    13    15 1   
    25    13    41 1   
    26    14    42 1   
    27    15    16 1   
    28    15    40 1   
    29    16    17 1   
    30    16    43 1   
    31    16    44 1   
    32    17    18 1   
    33    17    45 1   
    34    18    19 2   
    35    18    20 1   
    36    20    21 1   
    37    20    46 1   
    38    21    22 ar  
    39    21    23 ar  
    40    22    27 ar  
    41    22    47 1   
    42    23    24 ar  
    43    23    48 1   
    44    24    25 ar  
    45    24    49 1   
    46    25    26 1   
    47    25    27 ar  
    48    27    28 1   
    49    28    29 1   
    50    28    30 1   
    51    28    31 1   
@<TRIPOS>SUBSTRUCTURE
     1 74W         1 TEMP              0 ****  ****    0 ROOT
