@<TRIPOS>MOLECULE
74W
   49    51     1     0     0
SMALL
abcg2


@<TRIPOS>ATOM
      1 OAC          4.8270     0.1970     1.7960 o          1 74W      -0.567000
      2 CAZ          5.3910     0.4460     0.7510 c          1 74W       0.622000
      3 NAR          6.3120     1.4560     0.6470 ns         1 74W      -0.468500
      4 CAY          7.0290     1.8460    -0.4700 c          1 74W       0.586200
      5 OAB          7.8230     2.7680    -0.4070 o          1 74W      -0.522000
      6 CAU          6.7430     1.0740    -1.6620 cc         1 74W      -0.257400
      7 CAA          7.4580     1.4080    -2.9300 c3         1 74W      -0.021900
      8 CAM          5.8370     0.0860    -1.5680 cd         1 74W      -0.008400
      9 NBD          5.1730    -0.2490    -0.4160 n          1 74W      -0.323000
     10 CBC          4.1870    -1.3280    -0.4500 c5         1 74W       0.356700
     11 OAS          2.9170    -0.8050    -0.1900 os         1 74W      -0.463000
     12 CAO          4.4210    -2.4830     0.5280 c5         1 74W      -0.152400
     13 CBA          3.2620    -2.4000     1.5220 c5         1 74W       0.149300
     14 OAD          2.7130    -3.6390     1.8920 oh         1 74W      -0.699000
     15 CBB          2.2120    -1.6070     0.7430 c5         1 74W       0.143300
     16 CAN          1.3610    -0.7170     1.6280 c3         1 74W       0.109000
     17 NAP          0.3850     0.0530     0.8930 ns         1 74W      -0.437900
     18 CAT         -0.8150    -0.3900     0.5110 cs         1 74W       0.471400
     19 SAE         -1.4020    -1.9030     0.9360 s          1 74W      -0.628400
     20 NAQ         -1.5050     0.4940    -0.2570 ns         1 74W      -0.374100
     21 CAV         -2.7930     0.3540    -0.7830 ca         1 74W       0.063600
     22 CAL         -3.8660    -0.0890    -0.0140 ca         1 74W      -0.038000
     23 CAJ         -3.0160     0.7470    -2.0960 ca         1 74W      -0.111000
     24 CAK         -4.2870     0.6880    -2.6420 ca         1 74W      -0.096000
     25 CAW         -5.3440     0.2230    -1.8820 ca         1 74W       0.150000
     26 CL          -6.9080     0.1480    -2.6140 cl         1 74W      -0.166000
     27 CAX         -5.1380    -0.1690    -0.5590 ca         1 74W      -0.176300
     28 CBE         -6.2790    -0.6490     0.2900 c3         1 74W       0.365300
     29 FAF         -6.8630    -1.7360    -0.2260 f          1 74W      -0.106333
     30 FAG         -5.8860    -0.9720     1.5250 f          1 74W      -0.106333
     31 FAH         -7.2300     0.2850     0.4180 f          1 74W      -0.106333
     32 HAR          6.4820     1.9740     1.5010 hn         1 74W       0.343500
     33 HAA1         7.2690     2.4380    -3.2360 hc         1 74W       0.049367
     34 HAA2         8.5380     1.2980    -2.8180 hc         1 74W       0.049367
     35 HAA3         7.1390     0.7540    -3.7390 hc         1 74W       0.049367
     36 HAM          5.5830    -0.5180    -2.4290 h4         1 74W       0.205000
     37 HBC          4.2350    -1.6990    -1.4770 h2         1 74W       0.066700
     38 HAO1         4.3530    -3.4220    -0.0230 hc         1 74W       0.075200
     39 HAO2         5.4030    -2.4510     0.9990 hc         1 74W       0.075200
     40 HBB          1.5620    -2.3130     0.2080 h1         1 74W       0.095700
     41 HBA          3.5720    -1.8380     2.4070 h1         1 74W       0.069700
     42 HAD          3.2850    -4.0370     2.5540 ho         1 74W       0.512000
     43 HAN1         0.8500    -1.3380     2.3640 h1         1 74W       0.089200
     44 HAN2         1.9980    -0.0110     2.1610 h1         1 74W       0.089200
     45 HAP          0.6770     0.9720     0.5970 hn         1 74W       0.310500
     46 HAQ         -0.9830     1.2750    -0.6300 hn         1 74W       0.309500
     47 HAL         -3.6970    -0.3590     1.0160 ha         1 74W       0.165000
     48 HAJ         -2.1940     1.1020    -2.7040 ha         1 74W       0.121000
     49 HAK         -4.4490     0.9950    -3.6660 ha         1 74W       0.137000
@<TRIPOS>BOND
     1     1     2 2   
     2     2     3 1   
     3     2     9 1   
     4     3     4 1   
     5     3    32 1   
     6     4     5 2   
     7     4     6 1   
     8     6     7 1   
     9     6     8 2   
    10     7    33 1   
    11     7    34 1   
    12     7    35 1   
    13     8     9 1   
    14     8    36 1   
    15     9    10 1   
    16    10    11 1   
    17    10    12 1   
    18    10    37 1   
    19    11    15 1   
    20    12    13 1   
    21    12    38 1   
    22    12    39 1   
    23    13    14 1   
    24    13    15 1   
    25    13    41 1   
    26    14    42 1   
    27    15    16 1   
    28    15    40 1   
    29    16    17 1   
    30    16    43 1   
    31    16    44 1   
    32    17    18 1   
    33    17    45 1   
    34    18    19 2   
    35    18    20 1   
    36    20    21 1   
    37    20    46 1   
    38    21    22 ar  
    39    21    23 ar  
    40    22    27 ar  
    41    22    47 1   
    42    23    24 ar  
    43    23    48 1   
    44    24    25 ar  
    45    24    49 1   
    46    25    26 1   
    47    25    27 ar  
    48    27    28 1   
    49    28    29 1   
    50    28    30 1   
    51    28    31 1   
@<TRIPOS>SUBSTRUCTURE
     1 74W         1 TEMP              0 ****  ****    0 ROOT
