@<TRIPOS>MOLECULE
74X
   49    51     1     0     0
SMALL
bcc


@<TRIPOS>ATOM
      1 OAC          6.1140    -0.5000     2.5390 o          1 74X      -0.631500
      2 CAZ          6.0060     0.2850     1.6190 c          1 74X       0.834500
      3 NAR          6.6660     1.4860     1.6090 ns         1 74X      -0.601500
      4 CAY          6.6280     2.4750     0.6430 c          1 74X       0.728700
      5 OAB          7.2680     3.5000     0.7810 o          1 74X      -0.594500
      6 CAU          5.7810     2.1700    -0.4950 cc         1 74X      -0.257400
      7 CAA          5.6610     3.1710    -1.5960 c3         1 74X      -0.022900
      8 CAM          5.1330     0.9940    -0.4950 cd         1 74X       0.038600
      9 NBD          5.2290     0.0600     0.5050 n          1 74X      -0.385000
     10 CBC          4.4370    -1.1570     0.4120 c5         1 74X       0.315500
     11 OAS          3.0760    -0.8040     0.2740 os         1 74X      -0.433600
     12 CAO          4.7760    -2.0370    -0.7820 c5         1 74X      -0.167400
     13 CBA          3.4270    -2.6790    -1.0910 c5         1 74X       0.124100
     14 OAD          3.2470    -3.1130    -2.4080 oh         1 74X      -0.573800
     15 CBB          2.4680    -1.5280    -0.7900 c5         1 74X       0.121100
     16 CAN          1.0910    -1.9920    -0.3660 c3         1 74X       0.102000
     17 NAP          0.2450    -0.8760    -0.0170 ns         1 74X      -0.512900
     18 CAT         -1.0450    -0.7380    -0.3380 cs         1 74X       0.609400
     19 SAE         -1.8910    -1.8490    -1.2660 s          1 74X      -0.627400
     20 NAQ         -1.6040     0.4020     0.1450 ns         1 74X      -0.444100
     21 CAV         -2.9360     0.8140     0.0070 ca         1 74X       0.059600
     22 CAL         -3.9970    -0.0250     0.3340 ca         1 74X      -0.053000
     23 CAJ         -3.1960     2.1170    -0.3900 ca         1 74X      -0.122000
     24 CAK         -4.4990     2.5780    -0.4750 ca         1 74X      -0.115000
     25 CAW         -5.5510     1.7330    -0.1740 ca         1 74X       0.061400
     26 CLA         -7.1600     2.3470    -0.3150 cl         1 74X      -0.072400
     27 CAX         -5.3050     0.4220     0.2360 ca         1 74X      -0.178300
     28 CBE         -6.4350    -0.5010     0.5920 c3         1 74X       0.729200
     29 FAG         -6.0000    -1.7040     0.9740 f          1 74X      -0.227633
     30 FAH         -7.1730    -0.0180     1.5990 f          1 74X      -0.227633
     31 FAF         -7.2610    -0.6980    -0.4420 f          1 74X      -0.227633
     32 HAR          7.2480     1.6650     2.4190 hn         1 74X       0.346500
     33 HAA1         5.2340     4.1090    -1.2380 hc         1 74X       0.049033
     34 HAA2         6.6360     3.4040    -2.0280 hc         1 74X       0.049033
     35 HAA3         5.0220     2.7970    -2.3950 hc         1 74X       0.049033
     36 HAM          4.4830     0.7270    -1.3170 h4         1 74X       0.158000
     37 HBC          4.5830    -1.6940     1.3490 h2         1 74X       0.109700
     38 HAO1         5.1080    -1.4490    -1.6420 hc         1 74X       0.078700
     39 HAO2         5.5590    -2.7560    -0.5450 hc         1 74X       0.078700
     40 HBB          2.3830    -0.8830    -1.6760 h1         1 74X       0.078700
     41 HBA          3.2440    -3.4920    -0.3740 h1         1 74X       0.050700
     42 HAD          3.7500    -3.9230    -2.5320 ho         1 74X       0.420000
     43 HAN1         0.6270    -2.5360    -1.1880 h1         1 74X       0.087700
     44 HAN2         1.1750    -2.6800     0.4820 h1         1 74X       0.087700
     45 HAP          0.6430    -0.2100     0.6300 hn         1 74X       0.315500
     46 HAQ         -0.9740     1.1070     0.5020 hn         1 74X       0.312500
     47 HAL         -3.7870    -1.0270     0.6740 ha         1 74X       0.179000
     48 HAJ         -2.3790     2.7830    -0.6400 ha         1 74X       0.141000
     49 HAK         -4.6930     3.5940    -0.7890 ha         1 74X       0.156000
@<TRIPOS>BOND
     1     1     2 2   
     2     2     3 1   
     3     2     9 1   
     4     3     4 1   
     5     3    32 1   
     6     4     5 2   
     7     4     6 1   
     8     6     7 1   
     9     6     8 2   
    10     7    33 1   
    11     7    34 1   
    12     7    35 1   
    13     8     9 1   
    14     8    36 1   
    15     9    10 1   
    16    10    11 1   
    17    10    12 1   
    18    10    37 1   
    19    11    15 1   
    20    12    13 1   
    21    12    38 1   
    22    12    39 1   
    23    13    14 1   
    24    13    15 1   
    25    13    41 1   
    26    14    42 1   
    27    15    16 1   
    28    15    40 1   
    29    16    17 1   
    30    16    43 1   
    31    16    44 1   
    32    17    18 1   
    33    17    45 1   
    34    18    19 2   
    35    18    20 1   
    36    20    21 1   
    37    20    46 1   
    38    21    22 ar  
    39    21    23 ar  
    40    22    27 ar  
    41    22    47 1   
    42    23    24 ar  
    43    23    48 1   
    44    24    25 ar  
    45    24    49 1   
    46    25    26 1   
    47    25    27 ar  
    48    27    28 1   
    49    28    29 1   
    50    28    30 1   
    51    28    31 1   
@<TRIPOS>SUBSTRUCTURE
     1 74X         1 TEMP              0 ****  ****    0 ROOT
