@<TRIPOS>MOLECULE
74X
   49    51     1     0     0
SMALL
No Charge or Current Charge


@<TRIPOS>ATOM
      1 OAC          6.6520    -0.6350     2.1700 o          1 74X      -0.556000
      2 CAZ          6.3210     0.2300     1.3750 c          1 74X       0.625000
      3 NAR          7.0270     1.3860     1.2790 ns         1 74X      -0.467500
      4 CAY          6.8060     2.4430     0.4540 c          1 74X       0.586200
      5 OAB          7.5330     3.4230     0.4810 o          1 74X      -0.519000
      6 CAU          5.6370     2.2810    -0.4410 cc         1 74X      -0.257400
      7 CAA          5.3510     3.4320    -1.3770 c3         1 74X      -0.022900
      8 CAM          4.8850     1.1270    -0.3830 cd         1 74X      -0.011400
      9 NBD          5.2180     0.1070     0.5120 n          1 74X      -0.318000
     10 CBC          4.4120    -1.1360     0.5840 c5         1 74X       0.338700
     11 OAS          3.0060    -0.8760     0.3540 os         1 74X      -0.480000
     12 CAO          4.8750    -2.0530    -0.5820 c5         1 74X      -0.167400
     13 CBA          3.5830    -2.8650    -0.8080 c5         1 74X       0.147300
     14 OAD          3.5950    -3.5490    -2.0620 oh         1 74X      -0.696000
     15 CBB          2.5620    -1.6930    -0.7580 c5         1 74X       0.144300
     16 CAN          1.0870    -2.1070    -0.5660 c3         1 74X       0.102000
     17 NAP          0.1950    -0.9710    -0.3000 ns         1 74X      -0.445900
     18 CAT         -1.1550    -0.9420    -0.4920 cs         1 74X       0.475400
     19 SAE         -2.0140    -2.2350    -1.1140 s          1 74X      -0.627400
     20 NAQ         -1.6810     0.2840    -0.1800 ns         1 74X      -0.377100
     21 CAV         -3.0040     0.7930    -0.1320 ca         1 74X       0.059600
     22 CAL         -4.1230    -0.0220     0.1390 ca         1 74X      -0.035000
     23 CAJ         -3.1890     2.1720    -0.3200 ca         1 74X      -0.104000
     24 CAK         -4.4770     2.7260    -0.2700 ca         1 74X      -0.097000
     25 CAW         -5.5930     1.9130    -0.0200 ca         1 74X       0.153000
     26 ClA         -7.1790     2.6880     0.0290 cl         1 74X      -0.164000
     27 CAX         -5.4310     0.5230     0.1940 ca         1 74X      -0.178300
     28 CBE         -6.6400    -0.3800     0.4870 c3         1 74X       0.365300
     29 FAG         -6.3010    -1.6780     0.6640 f          1 74X      -0.106333
     30 FAH         -7.2890     0.0000     1.6110 f          1 74X      -0.106333
     31 FAF         -7.5400    -0.3570    -0.5230 f          1 74X      -0.106333
     32 HAR          7.8160     1.4680     1.8990 hn         1 74X       0.346500
     33 HAA1         5.1550     4.3550    -0.8190 hc         1 74X       0.049033
     34 HAA2         6.2000     3.6150    -2.0480 hc         1 74X       0.049033
     35 HAA3         4.4730     3.2290    -2.0020 hc         1 74X       0.049033
     36 HAM          4.0140     0.9290    -1.0030 h4         1 74X       0.208000
     37 HBC          4.5520    -1.6090     1.5660 h2         1 74X       0.109700
     38 HAO1         5.1600    -1.4830    -1.4750 hc         1 74X       0.078700
     39 HAO2         5.7290    -2.6790    -0.3000 hc         1 74X       0.078700
     40 HBB          2.6340    -1.0890    -1.6740 h1         1 74X       0.078700
     41 HBA          3.4060    -3.5700     0.0180 h1         1 74X       0.050700
     42 HAD          4.2950    -4.2420    -2.0100 ho         1 74X       0.519000
     43 HAN1         0.7560    -2.6320    -1.4720 h1         1 74X       0.087700
     44 HAN2         1.0180    -2.8100     0.2750 h1         1 74X       0.087700
     45 HAP          0.6320    -0.1420     0.0880 hn         1 74X       0.315500
     46 HAQ         -0.9880     0.9710     0.0880 hn         1 74X       0.312500
     47 HAL         -3.9720    -1.0790     0.3300 ha         1 74X       0.161000
     48 HAJ         -2.3350     2.8170    -0.5170 ha         1 74X       0.123000
     49 HAK         -4.6120     3.7940    -0.4250 ha         1 74X       0.138000
@<TRIPOS>BOND
     1     1     2 2   
     2     2     3 1   
     3     2     9 1   
     4     3     4 1   
     5     3    32 1   
     6     4     5 2   
     7     4     6 1   
     8     6     7 1   
     9     6     8 2   
    10     7    33 1   
    11     7    34 1   
    12     7    35 1   
    13     8     9 1   
    14     8    36 1   
    15     9    10 1   
    16    10    11 1   
    17    10    12 1   
    18    10    37 1   
    19    11    15 1   
    20    12    13 1   
    21    12    38 1   
    22    12    39 1   
    23    13    14 1   
    24    13    15 1   
    25    13    41 1   
    26    14    42 1   
    27    15    16 1   
    28    15    40 1   
    29    16    17 1   
    30    16    43 1   
    31    16    44 1   
    32    17    18 1   
    33    17    45 1   
    34    18    19 2   
    35    18    20 1   
    36    20    21 1   
    37    20    46 1   
    38    21    22 ar  
    39    21    23 ar  
    40    22    27 ar  
    41    22    47 1   
    42    23    24 ar  
    43    23    48 1   
    44    24    25 ar  
    45    24    49 1   
    46    25    26 1   
    47    25    27 ar  
    48    27    28 1   
    49    28    29 1   
    50    28    30 1   
    51    28    31 1   
@<TRIPOS>SUBSTRUCTURE
     1 74X         1 TEMP              0 ****  ****    0 ROOT
