@<TRIPOS>MOLECULE
74Y
   46    48     1     0     0
SMALL
bcc


@<TRIPOS>ATOM
      1 C4           2.5480    -1.8910    -0.1700 ca         1 74Y      -0.026000
      2 C5           1.5560    -1.1130    -0.7300 ca         1 74Y      -0.333900
      3 C6           1.8630     0.1710    -1.4330 c          1 74Y       0.684700
      4 C10          0.9540     1.3630     1.3730 c3         1 74Y      -0.097400
      5 C13          1.8150     3.6390    -0.7080 c3         1 74Y      -0.097400
      6 C15          0.2340    -1.6190    -0.7000 ca         1 74Y       0.731200
      7 C17         -2.1850    -1.1710    -0.9870 c3         1 74Y       0.199500
      8 C20         -3.5210     1.1490     1.5760 cc         1 74Y      -0.274300
      9 C21         -2.7420     0.2680     2.2440 cd         1 74Y       0.230600
     10 C1           0.4790    -4.7730     1.1110 c3         1 74Y      -0.148400
     11 C2           0.9080    -3.4970     0.4560 ca         1 74Y       0.487600
     12 C3           2.2380    -3.1050     0.4300 ca         1 74Y      -0.313300
     13 O7           1.6760     0.2420    -2.6450 o          1 74Y      -0.609100
     14 N8           2.3250     1.1970    -0.6910 n          1 74Y      -0.462800
     15 C9           2.3410     1.1780     0.7680 c3         1 74Y       0.099500
     16 C11          0.3290     2.7390     1.1630 c3         1 74Y      -0.069900
     17 C12          0.3940     3.2890    -0.2620 c3         1 74Y      -0.069900
     18 C14          2.5960     2.4780    -1.3290 c3         1 74Y       0.099500
     19 N16         -0.7890    -0.9440    -1.2910 nu         1 74Y      -0.872900
     20 C18         -2.6720    -0.3430     0.1510 cd         1 74Y       0.198000
     21 C19         -3.4730     0.7500     0.2040 cc         1 74Y      -0.260300
     22 O22         -2.2270    -0.6420     1.3910 os         1 74Y      -0.312800
     23 N23         -0.0560    -2.7660    -0.0990 nb         1 74Y      -0.759000
     24 H1           3.5760    -1.5480    -0.1920 ha         1 74Y       0.136000
     25 H2           0.2940     0.5950     0.9630 hc         1 74Y       0.045950
     26 H3           1.0190     1.1590     2.4450 hc         1 74Y       0.045950
     27 H4           1.7900     4.4370    -1.4540 hc         1 74Y       0.045950
     28 H5           2.3610     4.0480     0.1460 hc         1 74Y       0.045950
     29 H6          -2.7740    -0.9150    -1.8670 h1         1 74Y       0.080200
     30 H8          -2.4750     0.1640     3.2840 h4         1 74Y       0.051100
     31 H9          -0.0040    -5.4330     0.3890 hc         1 74Y       0.051700
     32 H10          1.3200    -5.3050     1.5500 hc         1 74Y       0.051700
     33 H11         -0.2490    -4.5740     1.8980 hc         1 74Y       0.051700
     34 H12          3.0090    -3.7190     0.8740 ha         1 74Y       0.143000
     35 H13          3.0180     1.9690     1.0960 h1         1 74Y       0.055450
     36 H14          2.7760     0.2490     1.1300 h1         1 74Y       0.055450
     37 H15         -0.7150     2.6870     1.4810 hc         1 74Y       0.040700
     38 H16          0.8170     3.4620     1.8240 hc         1 74Y       0.040700
     39 H17         -0.2160     4.1950    -0.2970 hc         1 74Y       0.040700
     40 H18         -0.0720     2.5920    -0.9680 hc         1 74Y       0.040700
     41 H19          2.3390     2.3830    -2.3800 h1         1 74Y       0.055450
     42 H20          3.6680     2.6850    -1.2750 h1         1 74Y       0.055450
     43 H21         -3.9650     1.2180    -0.6330 ha         1 74Y       0.158000
     44 H22         -2.3350    -2.2320    -0.7940 h1         1 74Y       0.080200
     45 H23         -0.5810    -0.0650    -1.7350 hn         1 74Y       0.444800
     46 H7          -4.0590     1.9800     2.0010 ha         1 74Y       0.159000
@<TRIPOS>BOND
     1     1     2 ar  
     2     1    12 ar  
     3     1    24 1   
     4     2     3 1   
     5     2     6 ar  
     6     3    13 2   
     7     3    14 1   
     8     4    15 1   
     9     4    16 1   
    10     4    25 1   
    11     4    26 1   
    12     5    17 1   
    13     5    18 1   
    14     5    27 1   
    15     5    28 1   
    16     6    19 1   
    17     6    23 ar  
    18     7    19 1   
    19     7    20 1   
    20     7    29 1   
    21     7    44 1   
    22     8     9 2   
    23     8    21 1   
    24     8    46 1   
    25     9    22 1   
    26     9    30 1   
    27    10    11 1   
    28    10    31 1   
    29    10    32 1   
    30    10    33 1   
    31    11    12 ar  
    32    11    23 ar  
    33    12    34 1   
    34    14    15 1   
    35    14    18 1   
    36    15    35 1   
    37    15    36 1   
    38    16    17 1   
    39    16    37 1   
    40    16    38 1   
    41    17    39 1   
    42    17    40 1   
    43    18    41 1   
    44    18    42 1   
    45    19    45 1   
    46    20    21 2   
    47    20    22 1   
    48    21    43 1   
@<TRIPOS>SUBSTRUCTURE
     1 74Y         1 TEMP              0 ****  ****    0 ROOT
