@<TRIPOS>MOLECULE
74Y
   46    48     1     0     0
SMALL
No Charge or Current Charge


@<TRIPOS>ATOM
      1 C4           2.1990    -1.5940     0.1790 ca         1 74Y      -0.008000
      2 C5           1.1080    -1.2650    -0.6500 ca         1 74Y      -0.268600
      3 C6           0.9760     0.0890    -1.2770 c          1 74Y       0.617700
      4 C10          0.3040     2.3840     1.4040 c3         1 74Y      -0.097400
      5 C13          2.3460     3.6510    -0.5860 c3         1 74Y      -0.097400
      6 C15          0.1510    -2.2560    -0.8980 ca         1 74Y       0.665900
      7 C17         -2.3350    -2.1040    -1.1700 c3         1 74Y       0.199500
      8 C20         -2.9450     0.8970     0.9280 cc         1 74Y      -0.191000
      9 C21         -2.5600    -0.0700     1.8160 cd         1 74Y       0.120900
     10 C1           1.2200    -5.1930     1.0140 c3         1 74Y      -0.148400
     11 C2           1.2190    -3.7920     0.4330 ca         1 74Y       0.422300
     12 C3           2.2440    -2.8810     0.7300 ca         1 74Y      -0.230000
     13 O7           0.5540     0.2010    -2.4220 o          1 74Y      -0.609100
     14 N8           1.4580     1.2160    -0.5700 n          1 74Y      -0.395800
     15 C9           1.2740     1.2890     0.9080 c3         1 74Y       0.099500
     16 C11          0.9640     3.7620     1.6110 c3         1 74Y      -0.069900
     17 C12          1.3940     4.4700     0.3130 c3         1 74Y      -0.069900
     18 C14          1.6660     2.4770    -1.3300 c3         1 74Y       0.099500
     19 N16         -0.9520    -2.0370    -1.6830 nu         1 74Y      -0.928100
     20 C18         -2.5490    -1.0030    -0.1540 cd         1 74Y       0.088300
     21 C19         -2.9330     0.2970    -0.3450 cc         1 74Y      -0.177000
     22 O22         -2.3070    -1.2640     1.1780 os         1 74Y      -0.224000
     23 N23          0.1840    -3.4840    -0.3710 nb         1 74Y      -0.759000
     24 H1           2.9940    -0.8800     0.3860 ha         1 74Y       0.118000
     25 H2          -0.5500     2.4680     0.7210 hc         1 74Y       0.045950
     26 H3          -0.1020     2.0610     2.3700 hc         1 74Y       0.045950
     27 H4           2.7480     4.3330    -1.3450 hc         1 74Y       0.045950
     28 H5           3.2070     3.2910    -0.0110 hc         1 74Y       0.045950
     29 H6          -3.0570    -1.9760    -1.9890 h1         1 74Y       0.080200
     30 H8          -2.4310    -0.0360     2.8900 h4         1 74Y       0.051100
     31 H9           0.9500    -5.9380     0.2570 hc         1 74Y       0.051700
     32 H10          2.2090    -5.4620     1.4040 hc         1 74Y       0.051700
     33 H11          0.5020    -5.2710     1.8380 hc         1 74Y       0.051700
     34 H12          3.0660    -3.1720     1.3790 ha         1 74Y       0.125000
     35 H13          2.2530     1.4120     1.3880 h1         1 74Y       0.055450
     36 H14          0.8620     0.3390     1.2680 h1         1 74Y       0.055450
     37 H15          0.2580     4.4130     2.1420 hc         1 74Y       0.040700
     38 H16          1.8350     3.6500     2.2690 hc         1 74Y       0.040700
     39 H17          1.8910     5.4100     0.5840 hc         1 74Y       0.040700
     40 H18          0.5020     4.7490    -0.2620 hc         1 74Y       0.040700
     41 H19          0.7010     2.8160    -1.7280 h1         1 74Y       0.055450
     42 H20          2.2980     2.2320    -2.1940 h1         1 74Y       0.055450
     43 H21         -3.1760     0.7820    -1.2860 ha         1 74Y       0.140000
     44 H22         -2.5350    -3.0780    -0.6990 h1         1 74Y       0.080200
     45 H23         -0.7690    -1.2290    -2.2830 hn         1 74Y       0.500000
     46 H7          -3.2030     1.9280     1.1510 ha         1 74Y       0.141000
@<TRIPOS>BOND
     1     1     2 ar  
     2     1    12 ar  
     3     1    24 1   
     4     2     3 1   
     5     2     6 ar  
     6     3    13 2   
     7     3    14 1   
     8     4    15 1   
     9     4    16 1   
    10     4    25 1   
    11     4    26 1   
    12     5    17 1   
    13     5    18 1   
    14     5    27 1   
    15     5    28 1   
    16     6    19 1   
    17     6    23 ar  
    18     7    19 1   
    19     7    20 1   
    20     7    29 1   
    21     7    44 1   
    22     8     9 2   
    23     8    21 1   
    24     8    46 1   
    25     9    22 1   
    26     9    30 1   
    27    10    11 1   
    28    10    31 1   
    29    10    32 1   
    30    10    33 1   
    31    11    12 ar  
    32    11    23 ar  
    33    12    34 1   
    34    14    15 1   
    35    14    18 1   
    36    15    35 1   
    37    15    36 1   
    38    16    17 1   
    39    16    37 1   
    40    16    38 1   
    41    17    39 1   
    42    17    40 1   
    43    18    41 1   
    44    18    42 1   
    45    19    45 1   
    46    20    21 2   
    47    20    22 1   
    48    21    43 1   
@<TRIPOS>SUBSTRUCTURE
     1 74Y         1 TEMP              0 ****  ****    0 ROOT
