@<TRIPOS>MOLECULE
74Z
   35    38     1     0     0
SMALL
bcc


@<TRIPOS>ATOM
      1 C5           1.0270     3.2360    -0.2330 ca         1 74Z       0.695900
      2 C7           2.2300     1.3750    -0.1800 ca         1 74Z       0.492600
      3 C10          3.4520    -2.3730    -0.0570 c6         1 74Z      -0.007200
      4 C13          0.4590    -1.9850     0.0210 c6         1 74Z      -0.020200
      5 C15          1.1040     0.5640    -0.0610 ca         1 74Z      -0.354400
      6 C17         -4.6390     0.0610     1.1610 cc         1 74Z      -0.247300
      7 C1          -2.5540     1.3670     0.3370 c3         1 74Z       0.203500
      8 C3          -0.1240     1.2730     0.0110 ca         1 74Z       0.750200
      9 N4          -0.1320     2.6010    -0.0920 nb         1 74Z      -0.811000
     10 N6           2.2310     2.7050    -0.2670 nb         1 74Z      -0.711000
     11 S8           3.6790     0.4330    -0.2110 ss         1 74Z      -0.109900
     12 C9           2.7700    -1.0440    -0.0870 cc         1 74Z      -0.076600
     13 C11          2.4770    -3.4460     0.4190 c6         1 74Z      -0.071400
     14 C12          1.1400    -3.3140    -0.2980 c6         1 74Z      -0.072400
     15 C14          1.4290    -0.8380    -0.0320 cd         1 74Z      -0.046400
     16 C16         -3.7040     0.4340     0.2550 cd         1 74Z       0.200000
     17 C18         -5.5000    -0.8640     0.4940 cc         1 74Z      -0.274300
     18 C19         -5.0130    -0.9820    -0.7620 cd         1 74Z       0.240600
     19 O20         -3.9260    -0.1990    -0.9190 os         1 74Z      -0.317800
     20 H1           0.9680     4.3160    -0.3170 h5         1 74Z       0.046100
     21 H2           3.8240    -2.6210    -1.0560 hc         1 74Z       0.054200
     22 H3           4.3270    -2.3370     0.5960 hc         1 74Z       0.054200
     23 H4          -0.3530    -1.8220    -0.6930 hc         1 74Z       0.048700
     24 H5           0.0010    -2.0360     1.0150 hc         1 74Z       0.048700
     25 H7          -2.6010     1.8880     1.2980 h1         1 74Z       0.074200
     26 H8          -2.6230     2.1320    -0.4390 h1         1 74Z       0.074200
     27 H10          2.9070    -4.4330     0.2430 hc         1 74Z       0.044700
     28 H11          2.3260    -3.3520     1.4990 hc         1 74Z       0.044700
     29 H12          0.4740    -4.1340    -0.0240 hc         1 74Z       0.044700
     30 H13          1.3020    -3.3890    -1.3770 hc         1 74Z       0.044700
     31 H14         -6.3590    -1.3720     0.9010 ha         1 74Z       0.163000
     32 H15         -5.3190    -1.5610    -1.6180 h4         1 74Z       0.055100
     33 N2          -1.3040     0.6490     0.1780 nu         1 74Z      -0.863900
     34 H6          -4.7080     0.4010     2.1820 ha         1 74Z       0.162000
     35 H9          -1.2900    -0.3060     0.4920 hn         1 74Z       0.444800
@<TRIPOS>BOND
     1     1     9 ar  
     2     1    10 ar  
     3     1    20 1   
     4     2     5 ar  
     5     2    10 ar  
     6     2    11 1   
     7     3    12 1   
     8     3    13 1   
     9     3    21 1   
    10     3    22 1   
    11     4    14 1   
    12     4    15 1   
    13     4    23 1   
    14     4    24 1   
    15     5     8 ar  
    16     5    15 1   
    17     6    16 2   
    18     6    17 1   
    19     6    34 1   
    20     7    16 1   
    21     7    25 1   
    22     7    26 1   
    23     7    33 1   
    24     8     9 ar  
    25     8    33 1   
    26    11    12 1   
    27    12    15 2   
    28    13    14 1   
    29    13    27 1   
    30    13    28 1   
    31    14    29 1   
    32    14    30 1   
    33    16    19 1   
    34    17    18 2   
    35    17    31 1   
    36    18    19 1   
    37    18    32 1   
    38    33    35 1   
@<TRIPOS>SUBSTRUCTURE
     1 74Z         1 TEMP              0 ****  ****    0 ROOT
