@<TRIPOS>MOLECULE
74Z
   35    38     1     0     0
SMALL
No Charge or Current Charge


@<TRIPOS>ATOM
      1 C5           1.1720     3.3620     0.0970 ca         1 74Z       0.169900
      2 C7           2.3490     1.4140    -0.0030 ca         1 74Z       0.164300
      3 C10          3.3680    -2.4410    -0.1210 c6         1 74Z      -0.007200
      4 C13          0.3940    -1.8660    -0.0650 c6         1 74Z      -0.020200
      5 C15          1.1740     0.6890     0.0100 ca         1 74Z      -0.223800
      6 C17         -4.7620     0.2840     0.9900 cc         1 74Z      -0.164000
      7 C1          -2.6080     1.4010     0.0330 c3         1 74Z       0.203500
      8 C3          -0.0360     1.4060     0.0850 ca         1 74Z       0.421900
      9 N4          -0.0350     2.7530     0.1250 nb         1 74Z      -0.285000
     10 N6           2.3790     2.7580     0.0390 nb         1 74Z      -0.185000
     11 S8           3.8140     0.4140    -0.0700 ss         1 74Z      -0.109900
     12 C9           2.7890    -1.0460    -0.0740 cc         1 74Z      -0.076600
     13 C11          2.3210    -3.4950     0.3010 c6         1 74Z      -0.071400
     14 C12          0.9880    -3.2470    -0.4340 c6         1 74Z      -0.072400
     15 C14          1.4310    -0.7470    -0.0480 cd         1 74Z      -0.046400
     16 C16         -3.6800     0.3400     0.1530 cd         1 74Z       0.090300
     17 C18         -5.4290    -0.9200     0.6940 cc         1 74Z      -0.191000
     18 C19         -4.7140    -1.5250    -0.3030 cd         1 74Z       0.130900
     19 O20         -3.6190    -0.7710    -0.6650 os         1 74Z      -0.229000
     20 H1           1.1720     4.4500     0.1300 h5         1 74Z       0.046100
     21 H2           3.7190    -2.6630    -1.1380 hc         1 74Z       0.054200
     22 H3           4.2500    -2.5190     0.5300 hc         1 74Z       0.054200
     23 H4          -0.4060    -1.6400    -0.7820 hc         1 74Z       0.048700
     24 H5          -0.0820    -1.9340     0.9230 hc         1 74Z       0.048700
     25 H7          -2.7500     2.1440     0.8300 h1         1 74Z       0.074200
     26 H8          -2.7220     1.9150    -0.9320 h1         1 74Z       0.074200
     27 H10          2.6950    -4.5040     0.0810 hc         1 74Z       0.044700
     28 H11          2.1600    -3.4480     1.3870 hc         1 74Z       0.044700
     29 H12          0.2670    -4.0400    -0.1900 hc         1 74Z       0.044700
     30 H13          1.1530    -3.3000    -1.5190 hc         1 74Z       0.044700
     31 H14         -6.3320    -1.2880     1.1710 ha         1 74Z       0.145000
     32 H15         -4.8730    -2.4620    -0.8220 h4         1 74Z       0.055100
     33 N2          -1.2720     0.7780     0.1350 nu         1 74Z      -0.919100
     34 H6          -5.0560     1.0140     1.7370 ha         1 74Z       0.144000
     35 H9          -1.2410    -0.2380     0.0970 hn         1 74Z       0.500000
@<TRIPOS>BOND
     1     1     9 ar  
     2     1    10 ar  
     3     1    20 1   
     4     2     5 ar  
     5     2    10 ar  
     6     2    11 1   
     7     3    12 1   
     8     3    13 1   
     9     3    21 1   
    10     3    22 1   
    11     4    14 1   
    12     4    15 1   
    13     4    23 1   
    14     4    24 1   
    15     5     8 ar  
    16     5    15 1   
    17     6    16 2   
    18     6    17 1   
    19     6    34 1   
    20     7    16 1   
    21     7    25 1   
    22     7    26 1   
    23     7    33 1   
    24     8     9 ar  
    25     8    33 1   
    26    11    12 1   
    27    12    15 2   
    28    13    14 1   
    29    13    27 1   
    30    13    28 1   
    31    14    29 1   
    32    14    30 1   
    33    16    19 1   
    34    17    18 2   
    35    17    31 1   
    36    18    19 1   
    37    18    32 1   
    38    33    35 1   
@<TRIPOS>SUBSTRUCTURE
     1 74Z         1 TEMP              0 ****  ****    0 ROOT
