@<TRIPOS>MOLECULE
750
   99   104     1     0     0
SMALL
bcc


@<TRIPOS>ATOM
      1 C1           7.9260    -5.4900     2.0280 c6         1 750       0.130400
      2 O2           6.9850    -6.4350     1.5690 os         1 750      -0.402600
      3 C3           5.9330    -5.7980     0.8790 c6         1 750       0.130400
      4 C4           6.4480    -4.9750    -0.2870 c6         1 750       0.127300
      5 N5           7.4090    -3.9940     0.1820 n3         1 750      -0.708600
      6 C6           8.4870    -4.6630     0.8880 c6         1 750       0.127300
      7 C7           7.9120    -3.1400    -0.8740 c3         1 750       0.167800
      8 C8           6.8800    -2.1720    -1.4070 c3         1 750       0.145400
      9 O9           6.4880    -1.3160    -0.3510 os         1 750      -0.309900
     10 C10          5.3910    -0.5450    -0.4900 ca         1 750       0.123100
     11 C11          4.9640     0.1190     0.6530 ca         1 750      -0.118000
     12 C12          3.8230     0.9130     0.5670 ca         1 750      -0.095800
     13 C13          3.1420     1.0210    -0.6460 ca         1 750       0.040100
     14 C14          3.5590     0.3860    -1.7980 ca         1 750      -0.084000
     15 C15          4.6970    -0.3980    -1.7070 ca         1 750      -0.188000
     16 C16          3.0660     1.6940     1.4990 cc         1 750      -0.114200
     17 C17          2.0200     2.1910     0.8010 cd         1 750      -0.050100
     18 O18          2.0460     1.8020    -0.5000 os         1 750      -0.169200
     19 C19          0.8930     3.0140     1.2820 c          1 750       0.714300
     20 O20          0.8510     3.3530     2.4560 o          1 750      -0.598100
     21 N21         -0.0300     3.3270     0.3590 ns         1 750      -0.544900
     22 C22         -1.2760     3.9890     0.6600 c3         1 750       0.036700
     23 C23         -1.5010     5.2110    -0.2370 c3         1 750      -0.083400
     24 C24         -0.4360     6.3000    -0.1170 c3         1 750      -0.057700
     25 C25         -0.7360     7.4140    -1.1170 c3         1 750      -0.091600
     26 C26         -0.3380     6.8580     1.2990 c3         1 750      -0.091600
     27 C27         -2.4170     3.0020     0.4350 c          1 750       0.654100
     28 O28         -2.3870     2.1960    -0.4830 o          1 750      -0.606100
     29 N29         -3.4510     3.0980     1.2840 ns         1 750      -0.553900
     30 C30         -4.6310     2.3070     1.0730 c3         1 750       0.008700
     31 C33         -6.5020     1.9190    -0.6830 c3         1 750      -0.004000
     32 N34         -6.6610     0.6720     0.0200 n          1 750      -0.481800
     33 C35         -7.3410     0.7430     1.3080 c3         1 750       0.098000
     34 C36         -6.3850     1.0400     2.4580 c3         1 750      -0.103400
     35 C37         -5.5580     2.3140     2.3040 c3         1 750      -0.076400
     36 C38         -6.0020    -0.4650    -0.3230 c          1 750       0.668100
     37 O39         -6.1090    -1.4890     0.3290 o          1 750      -0.574100
     38 C40         -5.1150    -0.4020    -1.5620 c3         1 750      -0.114100
     39 C41         -4.2000    -1.5870    -1.6560 ca         1 750      -0.082300
     40 C42         -4.6330    -2.7910    -2.2040 ca         1 750      -0.094000
     41 C43         -3.7650    -3.8690    -2.2890 ca         1 750      -0.139000
     42 C44         -2.4590    -3.7570    -1.8330 ca         1 750      -0.109000
     43 C45         -2.0070    -2.5580    -1.2840 cp         1 750      -0.149500
     44 C46         -2.8940    -1.4850    -1.1960 ca         1 750      -0.074000
     45 C47         -0.6170    -2.4060    -0.7990 cp         1 750       0.474800
     46 C48          0.4290    -3.1700    -1.3200 ca         1 750      -0.240300
     47 C49          1.7090    -2.9810    -0.8280 ca         1 750      -0.096000
     48 C50          1.9160    -2.0340     0.1630 ca         1 750      -0.247300
     49 C51          0.8190    -1.3130     0.6090 ca         1 750       0.410200
     50 N52         -0.4100    -1.4910     0.1470 nb         1 750      -0.666000
     51 C31         -5.3850     2.8030    -0.1560 c          1 750       0.538100
     52 HC11         8.7260    -6.0390     2.5260 h1         1 750       0.052950
     53 HC12         7.4630    -4.8190     2.7670 h1         1 750       0.052950
     54 HC31         5.2590    -6.5760     0.5180 h1         1 750       0.052950
     55 HC32         5.3670    -5.1460     1.5590 h1         1 750       0.052950
     56 HC41         5.5950    -4.4780    -0.7540 h1         1 750       0.039200
     57 HC42         6.8890    -5.6420    -1.0480 h1         1 750       0.039200
     58 HC61         9.0770    -5.3130     0.2170 h1         1 750       0.039200
     59 HC62         9.1710    -3.9170     1.2980 h1         1 750       0.039200
     60 HC71         8.2970    -3.7170    -1.7320 h1         1 750       0.044700
     61 HC72         8.7590    -2.5720    -0.4810 h1         1 750       0.044700
     62 HC81         6.0150    -2.7080    -1.8110 h1         1 750       0.034200
     63 HC82         7.3180    -1.5990    -2.2320 h1         1 750       0.034200
     64 H11          5.5030     0.0050     1.5850 ha         1 750       0.158000
     65 H14          3.0260     0.4830    -2.7340 ha         1 750       0.152000
     66 H15          5.0430    -0.8970    -2.6010 ha         1 750       0.137000
     67 H16          3.2690     1.8510     2.5460 ha         1 750       0.181000
     68 H21          0.0660     2.9590    -0.5760 hn         1 750       0.345500
     69 H22         -1.2510     4.2950     1.7060 h1         1 750       0.090700
     70 H231        -2.4820     5.6310     0.0050 hc         1 750       0.057700
     71 H232        -1.5600     4.8730    -1.2770 hc         1 750       0.057700
     72 H24          0.5330     5.8640    -0.3830 hc         1 750       0.053700
     73 H251         0.0370     8.1830    -1.0910 hc         1 750       0.035533
     74 H252        -0.7890     7.0290    -2.1370 hc         1 750       0.035533
     75 H253        -1.6910     7.8940    -0.8930 hc         1 750       0.035533
     76 H261        -0.0380     6.0990     2.0230 hc         1 750       0.035533
     77 H262         0.3990     7.6610     1.3510 hc         1 750       0.035533
     78 H263        -1.2970     7.2690     1.6250 hc         1 750       0.035533
     79 H29         -3.4600     3.8200     1.9870 hn         1 750       0.324500
     80 H30         -4.3090     1.2760     0.8980 h1         1 750       0.100700
     81 H331        -6.3450     1.7640    -1.7510 h1         1 750       0.080700
     82 H332        -7.4340     2.4870    -0.6160 h1         1 750       0.080700
     83 H351        -7.8650    -0.1920     1.4930 h1         1 750       0.060200
     84 H352        -8.0990     1.5250     1.2350 h1         1 750       0.060200
     85 H361        -5.7090     0.1920     2.5920 hc         1 750       0.062200
     86 H362        -6.9730     1.1150     3.3750 hc         1 750       0.062200
     87 H371        -4.9250     2.4070     3.1890 hc         1 750       0.051700
     88 H372        -6.2030     3.1980     2.2910 hc         1 750       0.051700
     89 H401        -5.7560    -0.3380    -2.4470 hc         1 750       0.072200
     90 H402        -4.5130     0.5090    -1.5580 hc         1 750       0.072200
     91 H42         -5.6470    -2.8840    -2.5730 ha         1 750       0.130000
     92 H43         -4.1070    -4.8060    -2.7090 ha         1 750       0.130000
     93 H44         -1.8020    -4.6150    -1.8940 ha         1 750       0.128000
     94 H46         -2.5470    -0.5460    -0.7780 ha         1 750       0.163000
     95 H48          0.2550    -3.8880    -2.1100 ha         1 750       0.139000
     96 H49          2.5330    -3.5600    -1.2230 ha         1 750       0.129000
     97 H50          2.8990    -1.8470     0.5730 ha         1 750       0.148000
     98 H51          0.9370    -0.5610     1.3810 h4         1 750       0.020100
     99 O32         -5.1480     3.8640    -0.6740 o          1 750      -0.509100
@<TRIPOS>BOND
     1     1     2 1   
     2     1     6 1   
     3     1    52 1   
     4     1    53 1   
     5     2     3 1   
     6     3     4 1   
     7     3    54 1   
     8     3    55 1   
     9     4     5 1   
    10     4    56 1   
    11     4    57 1   
    12     5     6 1   
    13     5     7 1   
    14     6    58 1   
    15     6    59 1   
    16     7     8 1   
    17     7    60 1   
    18     7    61 1   
    19     8     9 1   
    20     8    62 1   
    21     8    63 1   
    22     9    10 1   
    23    10    11 ar  
    24    10    15 ar  
    25    11    12 ar  
    26    11    64 1   
    27    12    13 ar  
    28    12    16 1   
    29    13    14 ar  
    30    13    18 1   
    31    14    15 ar  
    32    14    65 1   
    33    15    66 1   
    34    16    17 2   
    35    16    67 1   
    36    17    18 1   
    37    17    19 1   
    38    19    20 2   
    39    19    21 1   
    40    21    22 1   
    41    21    68 1   
    42    22    23 1   
    43    22    27 1   
    44    22    69 1   
    45    23    24 1   
    46    23    70 1   
    47    23    71 1   
    48    24    25 1   
    49    24    26 1   
    50    24    72 1   
    51    25    73 1   
    52    25    74 1   
    53    25    75 1   
    54    26    76 1   
    55    26    77 1   
    56    26    78 1   
    57    27    28 2   
    58    27    29 1   
    59    29    30 1   
    60    29    79 1   
    61    30    35 1   
    62    30    51 1   
    63    30    80 1   
    64    31    32 1   
    65    31    51 1   
    66    31    81 1   
    67    31    82 1   
    68    32    33 1   
    69    32    36 1   
    70    33    34 1   
    71    33    83 1   
    72    33    84 1   
    73    34    35 1   
    74    34    85 1   
    75    34    86 1   
    76    35    87 1   
    77    35    88 1   
    78    36    37 2   
    79    36    38 1   
    80    38    39 1   
    81    38    89 1   
    82    38    90 1   
    83    39    40 ar  
    84    39    44 ar  
    85    40    41 ar  
    86    40    91 1   
    87    41    42 ar  
    88    41    92 1   
    89    42    43 ar  
    90    42    93 1   
    91    43    44 ar  
    92    43    45 1   
    93    44    94 1   
    94    45    46 ar  
    95    45    50 ar  
    96    46    47 ar  
    97    46    95 1   
    98    47    48 ar  
    99    47    96 1   
   100    48    49 ar  
   101    48    97 1   
   102    49    50 ar  
   103    49    98 1   
   104    51    99 2   
@<TRIPOS>SUBSTRUCTURE
     1 750         1 TEMP              0 ****  ****    0 ROOT
