@<TRIPOS>MOLECULE
750
   99   104     1     0     0
SMALL
No Charge or Current Charge


@<TRIPOS>ATOM
      1 C1           9.4100    -5.4660     1.5560 c6         1 750       0.153600
      2 O2           8.4350    -6.5360     1.5740 os         1 750      -0.449000
      3 C3           7.0900    -6.0680     1.3160 c6         1 750       0.153600
      4 C4           7.0190    -5.3530    -0.0670 c6         1 750       0.127300
      5 N5           8.0240    -4.2460    -0.1740 n3         1 750      -0.708600
      6 C6           9.3910    -4.7410     0.1770 c6         1 750       0.127300
      7 C7           7.9960    -3.5250    -1.4810 c3         1 750       0.167800
      8 C8           6.6600    -2.8280    -1.8600 c3         1 750       0.168600
      9 O9           6.3390    -1.8450    -0.8550 os         1 750      -0.333100
     10 C10          5.1960    -1.0740    -0.9180 ca         1 750       0.123100
     11 C11          4.9680    -0.1570     0.1330 ca         1 750      -0.100000
     12 C12          3.8110     0.6290     0.0840 ca         1 750      -0.095800
     13 C13          2.9150     0.5170    -0.9540 ca         1 750       0.040100
     14 C14          3.1000    -0.3790    -2.0110 ca         1 750      -0.066000
     15 C15          4.2610    -1.1830    -1.9890 ca         1 750      -0.170000
     16 C16          3.2960     1.6180     1.0090 cc         1 750      -0.164200
     17 C17          2.0910     2.0250     0.4460 cd         1 750      -0.050100
     18 O18          1.8740     1.3670    -0.7460 os         1 750      -0.169200
     19 C19          1.1080     2.9780     1.0280 c          1 750       0.647300
     20 O20          1.2450     3.5360     2.1080 o          1 750      -0.598100
     21 N21         -0.0030     3.1370     0.2340 ns         1 750      -0.477900
     22 C22         -1.2340     3.8720     0.5980 c3         1 750       0.036700
     23 C23         -1.2470     5.3010    -0.0140 c3         1 750      -0.083400
     24 C24         -0.1990     6.2970     0.5560 c3         1 750      -0.057700
     25 C25         -0.1590     7.5940    -0.2840 c3         1 750      -0.091600
     26 C26         -0.4410     6.6270     2.0490 c3         1 750      -0.091600
     27 C27         -2.4550     3.0530     0.0990 c          1 750       0.587100
     28 O28         -2.3920     2.2850    -0.8530 o          1 750      -0.606100
     29 N29         -3.6260     3.2270     0.8080 ns         1 750      -0.486900
     30 C30         -4.8470     2.4260     0.5690 c3         1 750       0.008700
     31 C33         -6.6870     1.9850    -1.2750 c3         1 750      -0.004000
     32 N34         -6.8640     0.6960    -0.5370 n          1 750      -0.414800
     33 C35         -7.5680     0.8070     0.7630 c3         1 750       0.098000
     34 C36         -6.5880     1.0410     1.9320 c3         1 750      -0.103400
     35 C37         -5.7370     2.3360     1.8370 c3         1 750      -0.076400
     36 C38         -6.6170    -0.5760    -1.1250 c          1 750       0.601100
     37 O39         -7.1940    -1.5730    -0.7090 o          1 750      -0.574100
     38 C40         -5.5750    -0.7160    -2.2560 c3         1 750      -0.114100
     39 C41         -4.4430    -1.6690    -1.8740 ca         1 750      -0.082300
     40 C42         -4.4330    -2.9920    -2.3520 ca         1 750      -0.076000
     41 C43         -3.3830    -3.8570    -2.0060 ca         1 750      -0.121000
     42 C44         -2.3380    -3.4090    -1.1820 ca         1 750      -0.091000
     43 C45         -2.3180    -2.0820    -0.6800 cp         1 750      -0.149500
     44 C46         -3.3920    -1.2270    -1.0460 ca         1 750      -0.056000
     45 C47         -1.2080    -1.5970     0.2120 cp         1 750       0.409500
     46 C48          0.1050    -2.1300     0.1420 ca         1 750      -0.157000
     47 C49          1.1030    -1.6560     1.0090 ca         1 750      -0.078000
     48 C50          0.7540    -0.6550     1.9260 ca         1 750      -0.164000
     49 C51         -0.5610    -0.1630     1.9330 ca         1 750       0.344900
     50 N52         -1.5190    -0.6210     1.0980 nb         1 750      -0.666000
     51 C31         -5.6240     2.9330    -0.6850 c          1 750       0.538100
     52 HC11        10.4090    -5.8840     1.7460 h1         1 750       0.052950
     53 HC12         9.1800    -4.7500     2.3590 h1         1 750       0.052950
     54 HC31         6.4010    -6.9240     1.3310 h1         1 750       0.052950
     55 HC32         6.7890    -5.3720     2.1130 h1         1 750       0.052950
     56 HC41         5.9990    -4.9660    -0.1990 h1         1 750       0.039200
     57 HC42         7.1880    -6.0990    -0.8580 h1         1 750       0.039200
     58 HC61         9.7510    -5.4410    -0.5920 h1         1 750       0.039200
     59 HC62        10.1030    -3.9040     0.2090 h1         1 750       0.039200
     60 HC71         8.2470    -4.2260    -2.2890 h1         1 750       0.044700
     61 HC72         8.7770    -2.7530    -1.4860 h1         1 750       0.044700
     62 HC81         5.8630    -3.5770    -1.9430 h1         1 750       0.034200
     63 HC82         6.7800    -2.3480    -2.8400 h1         1 750       0.034200
     64 H11          5.6710    -0.0720     0.9570 ha         1 750       0.140000
     65 H14          2.3710    -0.4530    -2.8150 ha         1 750       0.134000
     66 H15          4.4180    -1.8840    -2.8040 ha         1 750       0.119000
     67 H16          3.7160     1.9520     1.9560 ha         1 750       0.231000
     68 H21         -0.0140     2.5890    -0.6200 hn         1 750       0.345500
     69 H22         -1.3150     3.9280     1.6910 h1         1 750       0.090700
     70 H231        -2.2460     5.7350     0.1230 hc         1 750       0.057700
     71 H232        -1.1030     5.2090    -1.0980 hc         1 750       0.057700
     72 H24          0.7930     5.8360     0.4730 hc         1 750       0.053700
     73 H251         0.6120     8.2770     0.0920 hc         1 750       0.035533
     74 H252         0.0720     7.3710    -1.3330 hc         1 750       0.035533
     75 H253        -1.1250     8.1130    -0.2490 hc         1 750       0.035533
     76 H261        -0.3730     5.7300     2.6740 hc         1 750       0.035533
     77 H262         0.3090     7.3390     2.4130 hc         1 750       0.035533
     78 H263        -1.4330     7.0730     2.1950 hc         1 750       0.035533
     79 H29         -3.6160     3.8970     1.5690 hn         1 750       0.324500
     80 H30         -4.5140     1.4080     0.3370 h1         1 750       0.100700
     81 H331        -6.4600     1.8230    -2.3330 h1         1 750       0.080700
     82 H332        -7.6380     2.5310    -1.2450 h1         1 750       0.080700
     83 H351        -8.1540    -0.0990     0.9630 h1         1 750       0.060200
     84 H352        -8.2820     1.6410     0.7230 h1         1 750       0.060200
     85 H361        -5.9170     0.1760     2.0050 hc         1 750       0.062200
     86 H362        -7.1620     1.0650     2.8660 hc         1 750       0.062200
     87 H371        -5.0940     2.3670     2.7250 hc         1 750       0.051700
     88 H372        -6.3880     3.2180     1.8960 hc         1 750       0.051700
     89 H401        -6.0990    -1.0950    -3.1400 hc         1 750       0.072200
     90 H402        -5.1390     0.2470    -2.5320 hc         1 750       0.072200
     91 H42         -5.2370    -3.3510    -2.9900 ha         1 750       0.112000
     92 H43         -3.3820    -4.8800    -2.3760 ha         1 750       0.112000
     93 H44         -1.5480    -4.1080    -0.9180 ha         1 750       0.110000
     94 H46         -3.3980    -0.2010    -0.6910 ha         1 750       0.145000
     95 H48          0.3490    -2.8960    -0.5870 ha         1 750       0.121000
     96 H49          2.1170    -2.0490     0.9660 ha         1 750       0.111000
     97 H50          1.4890    -0.2540     2.6180 ha         1 750       0.130000
     98 H51         -0.8570     0.6220     2.6280 h4         1 750       0.020100
     99 O32         -5.4150     4.0320    -1.1900 o          1 750      -0.509100
@<TRIPOS>BOND
     1     1     2 1   
     2     1     6 1   
     3     1    52 1   
     4     1    53 1   
     5     2     3 1   
     6     3     4 1   
     7     3    54 1   
     8     3    55 1   
     9     4     5 1   
    10     4    56 1   
    11     4    57 1   
    12     5     6 1   
    13     5     7 1   
    14     6    58 1   
    15     6    59 1   
    16     7     8 1   
    17     7    60 1   
    18     7    61 1   
    19     8     9 1   
    20     8    62 1   
    21     8    63 1   
    22     9    10 1   
    23    10    11 ar  
    24    10    15 ar  
    25    11    12 ar  
    26    11    64 1   
    27    12    13 ar  
    28    12    16 1   
    29    13    14 ar  
    30    13    18 1   
    31    14    15 ar  
    32    14    65 1   
    33    15    66 1   
    34    16    17 2   
    35    16    67 1   
    36    17    18 1   
    37    17    19 1   
    38    19    20 2   
    39    19    21 1   
    40    21    22 1   
    41    21    68 1   
    42    22    23 1   
    43    22    27 1   
    44    22    69 1   
    45    23    24 1   
    46    23    70 1   
    47    23    71 1   
    48    24    25 1   
    49    24    26 1   
    50    24    72 1   
    51    25    73 1   
    52    25    74 1   
    53    25    75 1   
    54    26    76 1   
    55    26    77 1   
    56    26    78 1   
    57    27    28 2   
    58    27    29 1   
    59    29    30 1   
    60    29    79 1   
    61    30    35 1   
    62    30    51 1   
    63    30    80 1   
    64    31    32 1   
    65    31    51 1   
    66    31    81 1   
    67    31    82 1   
    68    32    33 1   
    69    32    36 1   
    70    33    34 1   
    71    33    83 1   
    72    33    84 1   
    73    34    35 1   
    74    34    85 1   
    75    34    86 1   
    76    35    87 1   
    77    35    88 1   
    78    36    37 2   
    79    36    38 1   
    80    38    39 1   
    81    38    89 1   
    82    38    90 1   
    83    39    40 ar  
    84    39    44 ar  
    85    40    41 ar  
    86    40    91 1   
    87    41    42 ar  
    88    41    92 1   
    89    42    43 ar  
    90    42    93 1   
    91    43    44 ar  
    92    43    45 1   
    93    44    94 1   
    94    45    46 ar  
    95    45    50 ar  
    96    46    47 ar  
    97    46    95 1   
    98    47    48 ar  
    99    47    96 1   
   100    48    49 ar  
   101    48    97 1   
   102    49    50 ar  
   103    49    98 1   
   104    51    99 2   
@<TRIPOS>SUBSTRUCTURE
     1 750         1 TEMP              0 ****  ****    0 ROOT
