@<TRIPOS>MOLECULE
751
   65    69     1     0     0
SMALL
bcc


@<TRIPOS>ATOM
      1 C28          7.2590    -1.2290    -4.0020 c3         1 751       0.124700
      2 O4           7.2610    -1.6910    -2.6640 os         1 751      -0.315900
      3 C25          6.2400    -1.3440    -1.8620 ca         1 751       0.151100
      4 C26          6.3060    -1.7950    -0.5420 ca         1 751      -0.190000
      5 C27          5.3030    -1.4830     0.3530 ca         1 751      -0.076500
      6 C24          5.1470    -0.5790    -2.2640 ca         1 751      -0.190000
      7 C23          4.1470    -0.2740    -1.3510 ca         1 751      -0.076500
      8 C22          4.2010    -0.7130    -0.0310 cp         1 751      -0.086000
      9 C18          3.1400    -0.3700     0.9330 cp         1 751      -0.036000
     10 C17          2.5230     0.8790     0.8920 ca         1 751      -0.032000
     11 C19          2.7340    -1.2770     1.9140 ca         1 751      -0.073000
     12 C20          1.7500    -0.9460     2.8330 ca         1 751      -0.151000
     13 C21          1.1380     0.2970     2.7930 ca         1 751      -0.039000
     14 C16          1.5320     1.1950     1.8090 ca         1 751      -0.300500
     15 S1           0.6990     2.7540     1.6740 sy         1 751       1.287200
     16 O1           0.2050     3.1220     2.9890 o          1 751      -0.602800
     17 O2           1.5580     3.6730     0.9460 o          1 751      -0.602800
     18 N1          -0.6250     2.4680     0.7180 n3         1 751      -0.704500
     19 C4          -1.6480     1.5910     1.2940 c6         1 751       0.178300
     20 C3          -2.9010     1.6630     0.4460 c6         1 751       0.209300
     21 C1          -0.3500     2.1850    -0.6930 c6         1 751       0.178300
     22 C2          -1.6370     2.2680    -1.4950 c6         1 751       0.209300
     23 N2          -2.5900     1.3350    -0.9350 nh         1 751      -0.773300
     24 C5          -3.5840     0.8220    -1.7430 ca         1 751       0.550900
     25 N3          -3.8620     1.4480    -2.8740 nb         1 751      -0.703000
     26 C6          -4.8520     0.9800    -3.6260 ca         1 751       0.317900
     27 C7          -5.6080    -0.1010    -3.2240 ca         1 751       0.257900
     28 N4          -5.2930    -0.7790    -2.1250 nb         1 751      -0.625000
     29 C8          -4.2670    -0.3750    -1.3960 cp         1 751       0.350500
     30 C9          -3.8620    -1.2410    -0.2700 cp         1 751      -0.184500
     31 C10         -4.8260    -1.8270     0.5540 ca         1 751      -0.061000
     32 C11         -4.4640    -2.6620     1.5930 ca         1 751      -0.202500
     33 C12         -3.1180    -2.9500     1.8300 ca         1 751       0.152100
     34 O3          -2.8540    -3.7640     2.8670 os         1 751      -0.314900
     35 C15         -1.5040    -4.0540     3.1740 c3         1 751       0.125700
     36 C13         -2.1480    -2.3940     0.9990 ca         1 751      -0.202500
     37 C14         -2.5260    -1.5500    -0.0350 ca         1 751      -0.061000
     38 H281         8.1710    -1.6070    -4.4590 h1         1 751       0.042700
     39 H282         6.4020    -1.6070    -4.5640 h1         1 751       0.042700
     40 H283         7.2640    -0.1380    -4.0560 h1         1 751       0.042700
     41 H26          7.1580    -2.3820    -0.2210 ha         1 751       0.143000
     42 H24          5.0510    -0.2190    -3.2790 ha         1 751       0.143000
     43 H27          5.3930    -1.8280     1.3750 ha         1 751       0.131500
     44 H23          3.2980     0.3040    -1.6950 ha         1 751       0.131500
     45 H17          2.8460     1.6130     0.1640 ha         1 751       0.156000
     46 H19          3.1830    -2.2610     1.9550 ha         1 751       0.136000
     47 H20          1.4580    -1.6630     3.5890 ha         1 751       0.134000
     48 H21          0.3800     0.5520     3.5210 ha         1 751       0.153000
     49 H41C        -1.3030     0.5510     1.3410 h1         1 751       0.063450
     50 H42C        -1.8880     1.9210     2.3020 h1         1 751       0.063450
     51 H11C         0.3570     2.9140    -1.0810 h1         1 751       0.063450
     52 H12C         0.0770     1.1820    -0.8210 h1         1 751       0.063450
     53 H31C        -3.6330     0.9720     0.8580 h1         1 751       0.060450
     54 H32C        -3.3290     2.6720     0.5080 h1         1 751       0.060450
     55 H21C        -2.0170     3.2980    -1.4930 h1         1 751       0.060450
     56 H22C        -1.4130     1.9970    -2.5250 h1         1 751       0.060450
     57 H6          -5.0540     1.4910    -4.5600 h4         1 751       0.029100
     58 H7          -6.4510    -0.4520    -3.8070 h4         1 751       0.033100
     59 H10         -5.8740    -1.6140     0.3880 ha         1 751       0.143500
     60 H14         -1.7540    -1.1300    -0.6650 ha         1 751       0.143500
     61 H11         -5.2230    -3.0930     2.2350 ha         1 751       0.142500
     62 H13         -1.0960    -2.6060     1.1350 ha         1 751       0.142500
     63 H151        -0.9420    -3.1510     3.4260 h1         1 751       0.041033
     64 H152        -1.5180    -4.7080     4.0420 h1         1 751       0.041033
     65 H153        -0.9970    -4.5690     2.3540 h1         1 751       0.041033
@<TRIPOS>BOND
     1     1     2 1   
     2     1    38 1   
     3     1    39 1   
     4     1    40 1   
     5     2     3 1   
     6     3     4 ar  
     7     3     6 ar  
     8     4     5 ar  
     9     4    41 1   
    10     5     8 ar  
    11     5    43 1   
    12     6     7 ar  
    13     6    42 1   
    14     7     8 ar  
    15     7    44 1   
    16     8     9 1   
    17     9    10 ar  
    18     9    11 ar  
    19    10    14 ar  
    20    10    45 1   
    21    11    12 ar  
    22    11    46 1   
    23    12    13 ar  
    24    12    47 1   
    25    13    14 ar  
    26    13    48 1   
    27    14    15 1   
    28    15    16 2   
    29    15    17 2   
    30    15    18 1   
    31    18    19 1   
    32    18    21 1   
    33    19    20 1   
    34    19    49 1   
    35    19    50 1   
    36    20    23 1   
    37    20    53 1   
    38    20    54 1   
    39    21    22 1   
    40    21    51 1   
    41    21    52 1   
    42    22    23 1   
    43    22    55 1   
    44    22    56 1   
    45    23    24 1   
    46    24    25 ar  
    47    24    29 ar  
    48    25    26 ar  
    49    26    27 ar  
    50    26    57 1   
    51    27    28 ar  
    52    27    58 1   
    53    28    29 ar  
    54    29    30 1   
    55    30    31 ar  
    56    30    37 ar  
    57    31    32 ar  
    58    31    59 1   
    59    32    33 ar  
    60    32    61 1   
    61    33    34 1   
    62    33    36 ar  
    63    34    35 1   
    64    35    63 1   
    65    35    64 1   
    66    35    65 1   
    67    36    37 ar  
    68    36    62 1   
    69    37    60 1   
@<TRIPOS>SUBSTRUCTURE
     1 751         1 TEMP              0 ****  ****    0 ROOT
