@<TRIPOS>MOLECULE
751
   65    69     1     0     0
SMALL
No Charge or Current Charge


@<TRIPOS>ATOM
      1 C28          5.4100    -3.5330    -3.0760 c3         1 751       0.147900
      2 O4           5.5440    -3.5440    -1.6430 os         1 751      -0.339100
      3 C25          4.8030    -2.7130    -0.8280 ca         1 751       0.151100
      4 C26          5.0020    -2.8020     0.5560 ca         1 751      -0.172000
      5 C27          4.2730    -1.9850     1.4370 ca         1 751      -0.058500
      6 C24          3.8660    -1.7880    -1.3330 ca         1 751      -0.172000
      7 C23          3.1390    -0.9690    -0.4520 ca         1 751      -0.058500
      8 C22          3.3190    -1.0530     0.9540 cp         1 751      -0.086000
      9 C18          2.5180    -0.2000     1.8960 cp         1 751      -0.036000
     10 C17          2.0480     1.0830     1.5120 ca         1 751      -0.014000
     11 C19          2.1890    -0.6570     3.1990 ca         1 751      -0.055000
     12 C20          1.4340     0.1350     4.0800 ca         1 751      -0.133000
     13 C21          0.9760     1.4000     3.6810 ca         1 751      -0.021000
     14 C16          1.2740     1.8740     2.3890 ca         1 751      -0.300500
     15 S1           0.6390     3.4730     1.8360 sy         1 751       1.145600
     16 O1           0.2470     4.2860     2.9930 o          1 751      -0.532000
     17 O2           1.5700     3.9780     0.8190 o          1 751      -0.532000
     18 N1          -0.8090     3.0660     1.0170 n3         1 751      -0.704500
     19 C4          -1.3150     1.6720     1.2030 c6         1 751       0.178300
     20 C3          -2.7300     1.4570     0.5910 c6         1 751       0.209300
     21 C1          -0.8810     3.4800    -0.4180 c6         1 751       0.178300
     22 C2          -2.2860     3.2540    -1.0600 c6         1 751       0.209300
     23 N2          -2.7710     1.8540    -0.8470 nh         1 751      -0.773300
     24 C5          -3.6720     1.2180    -1.7400 ca         1 751       0.550900
     25 N3          -4.4860     2.0990    -2.3760 nb         1 751      -0.703000
     26 C6          -5.4170     1.5550    -3.2060 ca         1 751       0.317900
     27 C7          -5.5500     0.1550    -3.3950 ca         1 751       0.257900
     28 N4          -4.7460    -0.7430    -2.7680 nb         1 751      -0.625000
     29 C8          -3.7860    -0.2230    -1.9500 cp         1 751       0.350500
     30 C9          -2.8600    -1.2350    -1.3280 cp         1 751      -0.184500
     31 C10         -3.3480    -2.4740    -0.8400 ca         1 751      -0.043000
     32 C11         -2.4830    -3.4070    -0.2410 ca         1 751      -0.184500
     33 C12         -1.1140    -3.1310    -0.1170 ca         1 751       0.152100
     34 O3          -0.3120    -4.0780     0.4880 os         1 751      -0.338100
     35 C15          1.0930    -3.8600     0.7130 c3         1 751       0.148900
     36 C13         -0.6070    -1.9140    -0.6130 ca         1 751      -0.184500
     37 C14         -1.4690    -0.9840    -1.2180 ca         1 751      -0.043000
     38 H281         6.0870    -4.2690    -3.5260 h1         1 751       0.042700
     39 H282         4.3840    -3.7870    -3.3730 h1         1 751       0.042700
     40 H283         5.6610    -2.5460    -3.4830 h1         1 751       0.042700
     41 H26          5.7270    -3.5090     0.9500 ha         1 751       0.125000
     42 H24          3.6860    -1.6920    -2.4000 ha         1 751       0.125000
     43 H27          4.4630    -2.0720     2.5030 ha         1 751       0.113500
     44 H23          2.4130    -0.2770    -0.8710 ha         1 751       0.113500
     45 H17          2.2850     1.4660     0.5230 ha         1 751       0.138000
     46 H19          2.5080    -1.6410     3.5300 ha         1 751       0.118000
     47 H20          1.1950    -0.2380     5.0730 ha         1 751       0.116000
     48 H21          0.3800     1.9970     4.3700 ha         1 751       0.135000
     49 H41C        -0.6280     0.9490     0.7380 h1         1 751       0.063450
     50 H42C        -1.3760     1.4220     2.2710 h1         1 751       0.063450
     51 H11C        -0.6300     4.5460    -0.5240 h1         1 751       0.063450
     52 H12C        -0.1420     2.9170    -1.0070 h1         1 751       0.063450
     53 H31C        -3.0140     0.4040     0.7260 h1         1 751       0.060450
     54 H32C        -3.4530     2.0570     1.1610 h1         1 751       0.060450
     55 H21C        -2.9970     3.9680    -0.6210 h1         1 751       0.060450
     56 H22C        -2.2110     3.4810    -2.1340 h1         1 751       0.060450
     57 H6          -6.0770     2.2500    -3.7230 h4         1 751       0.029100
     58 H7          -6.3140    -0.2480    -4.0590 h4         1 751       0.033100
     59 H10         -4.4090    -2.7080    -0.9130 ha         1 751       0.125500
     60 H14         -1.0500    -0.0580    -1.6060 ha         1 751       0.125500
     61 H11         -2.8790    -4.3470     0.1350 ha         1 751       0.124500
     62 H13          0.4470    -1.6740    -0.5420 ha         1 751       0.124500
     63 H151         1.2510    -2.9840     1.3550 h1         1 751       0.041033
     64 H152         1.5380    -4.7300     1.2110 h1         1 751       0.041033
     65 H153         1.6230    -3.7040    -0.2350 h1         1 751       0.041033
@<TRIPOS>BOND
     1     1     2 1   
     2     1    38 1   
     3     1    39 1   
     4     1    40 1   
     5     2     3 1   
     6     3     4 ar  
     7     3     6 ar  
     8     4     5 ar  
     9     4    41 1   
    10     5     8 ar  
    11     5    43 1   
    12     6     7 ar  
    13     6    42 1   
    14     7     8 ar  
    15     7    44 1   
    16     8     9 1   
    17     9    10 ar  
    18     9    11 ar  
    19    10    14 ar  
    20    10    45 1   
    21    11    12 ar  
    22    11    46 1   
    23    12    13 ar  
    24    12    47 1   
    25    13    14 ar  
    26    13    48 1   
    27    14    15 1   
    28    15    16 2   
    29    15    17 2   
    30    15    18 1   
    31    18    19 1   
    32    18    21 1   
    33    19    20 1   
    34    19    49 1   
    35    19    50 1   
    36    20    23 1   
    37    20    53 1   
    38    20    54 1   
    39    21    22 1   
    40    21    51 1   
    41    21    52 1   
    42    22    23 1   
    43    22    55 1   
    44    22    56 1   
    45    23    24 1   
    46    24    25 ar  
    47    24    29 ar  
    48    25    26 ar  
    49    26    27 ar  
    50    26    57 1   
    51    27    28 ar  
    52    27    58 1   
    53    28    29 ar  
    54    29    30 1   
    55    30    31 ar  
    56    30    37 ar  
    57    31    32 ar  
    58    31    59 1   
    59    32    33 ar  
    60    32    61 1   
    61    33    34 1   
    62    33    36 ar  
    63    34    35 1   
    64    35    63 1   
    65    35    64 1   
    66    35    65 1   
    67    36    37 ar  
    68    36    62 1   
    69    37    60 1   
@<TRIPOS>SUBSTRUCTURE
     1 751         1 TEMP              0 ****  ****    0 ROOT
