@<TRIPOS>MOLECULE
752
   40    43     1     0     0
SMALL
abcg2


@<TRIPOS>ATOM
      1 C10        -33.8430    -6.9760     9.8920 ca         1 752      -0.116000
      2 C17        -32.1420   -11.1290    11.9730 c          1 752       0.604100
      3 C20        -34.3310   -10.4230    11.1470 cc         1 752       0.437800
      4 C24        -35.6310   -10.3040     9.0950 ca         1 752      -0.209000
      5 C26        -37.4370    -9.0560    10.1270 ca         1 752      -0.071000
      6 C28        -37.4910    -9.6290     7.7690 ca         1 752      -0.113000
      7 N01        -31.3410    -8.1280    11.1530 na         1 752      -0.504000
      8 C02        -30.3140    -9.0260    11.1250 cc         1 752       0.409800
      9 N03        -29.8400    -9.1070     9.9010 nd         1 752      -0.294000
     10 N04        -30.5700    -8.2450     9.1160 nd         1 752      -0.321000
     11 C05        -31.4790    -7.6690     9.8770 cc         1 752       0.519000
     12 C06        -32.5380    -6.7580     9.4350 ca         1 752      -0.150500
     13 C07        -33.3510    -4.9470     8.0770 ca         1 752      -0.105000
     14 C08        -34.6430    -5.1630     8.5390 ca         1 752      -0.114000
     15 C09        -34.8920    -6.1820     9.4530 ca         1 752      -0.148000
     16 C11        -32.2800    -5.7210     8.5240 ca         1 752      -0.052600
     17 C12        -30.8760    -5.3640     8.0520 c          1 752       0.712600
     18 O13        -30.0740    -4.9810     8.9380 o          1 752      -0.705000
     19 O14        -30.6650    -5.4400     6.8180 o          1 752      -0.705000
     20 C16        -31.1710   -10.8350    13.0930 c3         1 752      -0.055400
     21 N18        -33.3630   -10.5330    12.1220 ns         1 752      -0.406400
     22 O19        -31.8550   -11.7940    10.9920 o          1 752      -0.527100
     23 S21        -34.0890   -11.0120     9.5130 ss         1 752       0.145800
     24 N22        -35.4380    -9.7900    11.3830 nd         1 752      -0.617100
     25 C23        -36.2030    -9.7010    10.2330 ca         1 752       0.123400
     26 C25        -36.2670   -10.2760     7.8580 ca         1 752      -0.055000
     27 C27        -38.0700    -9.0250     8.8940 ca         1 752      -0.108000
     28 H101       -34.0380    -7.7850    10.5820 ha         1 752       0.087000
     29 H261       -37.8740    -8.5850    10.9970 ha         1 752       0.123000
     30 H281       -38.0040    -9.5880     6.8170 ha         1 752       0.110000
     31 H1         -31.8640    -7.8320    11.9660 hn         1 752       0.351000
     32 H071       -33.1590    -4.1540     7.3650 ha         1 752       0.122000
     33 H081       -35.4550    -4.5390     8.1850 ha         1 752       0.090000
     34 H091       -35.8960    -6.3700     9.8110 ha         1 752       0.094000
     35 H161       -31.6320   -10.2680    13.8980 h1         1 752       0.084700
     36 H162       -30.7760   -11.7710    13.4870 h1         1 752       0.084700
     37 H181       -33.5610   -10.0230    12.9730 hn         1 752       0.333500
     38 H251       -35.8180   -10.7390     6.9890 ha         1 752       0.125000
     39 H271       -39.0240    -8.5240     8.7970 ha         1 752       0.109000
     40 S15        -29.6820    -9.9280    12.4820 ss         1 752      -0.291300
@<TRIPOS>BOND
     1     1    12 ar  
     2     1    15 ar  
     3     1    28 1   
     4     2    20 1   
     5     2    21 1   
     6     2    22 2   
     7     3    21 1   
     8     3    23 1   
     9     3    24 2   
    10     4    23 1   
    11     4    25 ar  
    12     4    26 ar  
    13     5    25 ar  
    14     5    27 ar  
    15     5    29 1   
    16     6    26 ar  
    17     6    27 ar  
    18     6    30 1   
    19     7     8 1   
    20     7    11 1   
    21     7    31 1   
    22     8     9 2   
    23     8    40 1   
    24     9    10 1   
    25    10    11 2   
    26    11    12 1   
    27    12    16 ar  
    28    13    14 ar  
    29    13    16 ar  
    30    13    32 1   
    31    14    15 ar  
    32    14    33 1   
    33    15    34 1   
    34    16    17 1   
    35    17    18 1   
    36    17    19 1   
    37    20    35 1   
    38    20    36 1   
    39    20    40 1   
    40    21    37 1   
    41    24    25 1   
    42    26    38 1   
    43    27    39 1   
@<TRIPOS>SUBSTRUCTURE
     1 752         1 TEMP              0 ****  ****    0 ROOT
