@<TRIPOS>MOLECULE
752
   40    43     1     0     0
SMALL
No Charge or Current Charge


@<TRIPOS>ATOM
      1 C10        -33.4730    -7.0050     9.7160 ca         1 752      -0.116000
      2 C17        -32.2710   -11.0640    11.8550 c          1 752       0.604100
      3 C20        -34.5460   -10.5210    11.0400 cc         1 752       0.437800
      4 C24        -36.0280   -10.4400     9.1430 ca         1 752      -0.209000
      5 C26        -37.8130    -9.3400    10.3300 ca         1 752      -0.071000
      6 C28        -38.0670    -9.8990     7.9640 ca         1 752      -0.113000
      7 N01        -31.1380    -8.2300    11.0770 na         1 752      -0.504000
      8 C02        -29.9770    -8.9320    11.1240 cc         1 752       0.409800
      9 N03        -29.1870    -8.6350    10.1190 nd         1 752      -0.294000
     10 N04        -29.8730    -7.7080     9.3610 nd         1 752      -0.321000
     11 C05        -31.0410    -7.4630     9.9480 cc         1 752       0.519000
     12 C06        -32.1390    -6.6270     9.4330 ca         1 752      -0.150500
     13 C07        -33.0150    -4.8180     8.0310 ca         1 752      -0.105000
     14 C08        -34.3290    -5.2080     8.3270 ca         1 752      -0.114000
     15 C09        -34.5570    -6.3000     9.1720 ca         1 752      -0.148000
     16 C11        -31.9110    -5.5130     8.5730 ca         1 752      -0.052600
     17 C12        -30.5210    -5.0000     8.2550 c          1 752       0.712600
     18 O13        -29.8350    -4.5880     9.1800 o          1 752      -0.705000
     19 O14        -30.1900    -4.9220     7.0790 o          1 752      -0.705000
     20 C16        -31.3090   -10.6330    12.9780 c3         1 752      -0.055400
     21 N18        -33.5500   -10.5760    11.9860 ns         1 752      -0.406400
     22 O19        -31.9050   -11.7340    10.9020 o          1 752      -0.527100
     23 S21        -34.4040   -11.0720     9.3440 ss         1 752       0.145800
     24 N22        -35.6850    -9.9340    11.4170 nd         1 752      -0.617100
     25 C23        -36.5250    -9.8970    10.3110 ca         1 752       0.123400
     26 C25        -36.7740   -10.4550     7.9530 ca         1 752      -0.055000
     27 C27        -38.5870    -9.3420     9.1510 ca         1 752      -0.108000
     28 H101       -33.6810    -7.8640    10.3470 ha         1 752       0.087000
     29 H261       -38.2090    -8.9090    11.2460 ha         1 752       0.123000
     30 H281       -38.6650    -9.8980     7.0550 ha         1 752       0.110000
     31 H1         -31.8970    -8.2350    11.7370 hn         1 752       0.351000
     32 H071       -32.8450    -3.9610     7.3820 ha         1 752       0.122000
     33 H081       -35.1690    -4.6610     7.9020 ha         1 752       0.090000
     34 H091       -35.5750    -6.6110     9.3980 ha         1 752       0.094000
     35 H161       -31.7420    -9.7840    13.5200 h1         1 752       0.084700
     36 H162       -31.2130   -11.4700    13.6800 h1         1 752       0.084700
     37 H181       -33.7600   -10.1290    12.8660 hn         1 752       0.333500
     38 H251       -36.3640   -10.8860     7.0420 ha         1 752       0.125000
     39 H271       -39.5860    -8.9110     9.1570 ha         1 752       0.109000
     40 S15        -29.6220   -10.1460    12.3480 ss         1 752      -0.291300
@<TRIPOS>BOND
     1     1    12 ar  
     2     1    15 ar  
     3     1    28 1   
     4     2    20 1   
     5     2    21 1   
     6     2    22 2   
     7     3    21 1   
     8     3    23 1   
     9     3    24 2   
    10     4    23 1   
    11     4    25 ar  
    12     4    26 ar  
    13     5    25 ar  
    14     5    27 ar  
    15     5    29 1   
    16     6    26 ar  
    17     6    27 ar  
    18     6    30 1   
    19     7     8 1   
    20     7    11 1   
    21     7    31 1   
    22     8     9 2   
    23     8    40 1   
    24     9    10 1   
    25    10    11 2   
    26    11    12 1   
    27    12    16 ar  
    28    13    14 ar  
    29    13    16 ar  
    30    13    32 1   
    31    14    15 ar  
    32    14    33 1   
    33    15    34 1   
    34    16    17 1   
    35    17    18 1   
    36    17    19 1   
    37    20    35 1   
    38    20    36 1   
    39    20    40 1   
    40    21    37 1   
    41    24    25 1   
    42    26    38 1   
    43    27    39 1   
@<TRIPOS>SUBSTRUCTURE
     1 752         1 TEMP              0 ****  ****    0 ROOT
