@<TRIPOS>MOLECULE
753
   39    41     1     0     0
SMALL
No Charge or Current Charge


@<TRIPOS>ATOM
      1 C1           3.2900    -0.5570     0.0200 cc         1 753      -0.083400
      2 C2           3.7250     0.7750    -0.1030 cd         1 753      -0.088600
      3 C3           5.1050     1.2320    -0.4990 c          1 753       0.730200
      4 C4           1.2760     0.6770     0.3460 ca         1 753       0.098300
      5 C5           1.8310    -0.5830     0.2030 ca         1 753      -0.212800
      6 C6           0.9280    -1.6740     0.2010 ca         1 753       0.412900
      7 C7           0.4620    -4.1810    -0.1090 c3         1 753       0.235100
      8 C8          -0.8170    -0.2070     0.5430 ca         1 753       0.141300
      9 O1           5.3290     2.4360    -0.5110 o          1 753      -0.705000
     10 N1          -0.3940    -1.4800     0.3800 nb         1 753      -0.310000
     11 N2          -0.0380     0.8950     0.5230 nb         1 753      -0.188000
     12 N            1.3210    -2.9870    -0.0310 nu         1 753      -0.943100
     13 C            4.1670    -1.7930    -0.0100 c3         1 753      -0.030900
     14 O            5.9570     0.4220    -0.8360 o          1 753      -0.705000
     15 S            2.4470     1.9840     0.2500 ss         1 753      -0.054900
     16 C9          -2.3120     0.0050     0.7350 c3         1 753      -0.101700
     17 C10         -3.0580     0.1840    -0.6040 c3         1 753      -0.035100
     18 C11         -4.5530     0.3970    -0.4040 ca         1 753      -0.065300
     19 C16         -5.4280    -0.7060    -0.3640 ca         1 753      -0.107500
     20 C15         -6.8070    -0.5100    -0.1740 ca         1 753      -0.115000
     21 C14         -7.3190     0.7890    -0.0230 ca         1 753      -0.123000
     22 C13         -6.4500     1.8930    -0.0590 ca         1 753      -0.115000
     23 C12         -5.0710     1.6970    -0.2490 ca         1 753      -0.107500
     24 H1          -0.2710    -4.0750    -0.9200 h1         1 753       0.029367
     25 H2           1.0690    -5.0750    -0.3050 h1         1 753       0.029367
     26 H3          -0.0780    -4.3290     0.8360 h1         1 753       0.029367
     27 H5           2.3060    -3.1050    -0.2610 hn         1 753       0.506000
     28 H6           3.7900    -2.5710     0.6620 hc         1 753       0.038700
     29 H7           4.2390    -2.2060    -1.0240 hc         1 753       0.038700
     30 H8           5.1800    -1.5870     0.3500 hc         1 753       0.038700
     31 H9          -2.7470    -0.8450     1.2750 hc         1 753       0.055200
     32 H10         -2.4900     0.8860     1.3640 hc         1 753       0.055200
     33 H11         -2.6250     1.0350    -1.1460 hc         1 753       0.057700
     34 H12         -2.8840    -0.6970    -1.2330 hc         1 753       0.057700
     35 H13         -5.0390    -1.7160    -0.4780 ha         1 753       0.115000
     36 H14         -7.4790    -1.3660    -0.1450 ha         1 753       0.104000
     37 H15         -8.3860     0.9410     0.1240 ha         1 753       0.102000
     38 H16         -6.8450     2.9000     0.0600 ha         1 753       0.104000
     39 H17         -4.4050     2.5570    -0.2730 ha         1 753       0.115000
@<TRIPOS>BOND
     1     1     2 2   
     2     1     5 1   
     3     1    13 1   
     4     2     3 1   
     5     2    15 1   
     6     3     9 1   
     7     3    14 1   
     8     4     5 ar  
     9     4    11 ar  
    10     4    15 1   
    11     5     6 ar  
    12     6    10 ar  
    13     6    12 1   
    14     7    12 1   
    15     7    24 1   
    16     7    25 1   
    17     7    26 1   
    18     8    10 ar  
    19     8    11 ar  
    20     8    16 1   
    21    12    27 1   
    22    13    28 1   
    23    13    29 1   
    24    13    30 1   
    25    16    17 1   
    26    16    31 1   
    27    16    32 1   
    28    17    18 1   
    29    17    33 1   
    30    17    34 1   
    31    18    19 ar  
    32    18    23 ar  
    33    19    20 ar  
    34    19    35 1   
    35    20    21 ar  
    36    20    36 1   
    37    21    22 ar  
    38    21    37 1   
    39    22    23 ar  
    40    22    38 1   
    41    23    39 1   
@<TRIPOS>SUBSTRUCTURE
     1 753         1 TEMP              0 ****  ****    0 ROOT
