@<TRIPOS>MOLECULE
753
   39    41     1     0     0
SMALL
abcg2


@<TRIPOS>ATOM
      1 C1           3.2450    -0.5740    -0.1080 cc         1 753      -0.083400
      2 C2           3.6940     0.7140    -0.0870 cd         1 753      -0.088600
      3 C3           5.0580     1.3340    -0.2610 c          1 753       0.730200
      4 C4           1.2460     0.6200     0.2940 ca         1 753       0.098300
      5 C5           1.8220    -0.6370     0.1130 ca         1 753      -0.212800
      6 C6           0.8970    -1.7200     0.1790 ca         1 753       0.412900
      7 C7           0.3140    -4.0930     0.1020 c3         1 753       0.235100
      8 C8          -0.8050    -0.2170     0.5580 ca         1 753       0.141300
      9 O1           5.0600     2.5790    -0.1670 o          1 753      -0.705000
     10 N1          -0.3940    -1.4740     0.3990 nb         1 753      -0.310000
     11 N2          -0.0470     0.8630     0.5180 nb         1 753      -0.188000
     12 N            1.2540    -3.0000     0.0340 nu         1 753      -0.943100
     13 C            4.1070    -1.7780    -0.3290 c3         1 753      -0.030900
     14 O            6.0310     0.5920    -0.4770 o          1 753      -0.705000
     15 S            2.4250     1.8720     0.2000 ss         1 753      -0.054900
     16 C9          -2.2790    -0.0120     0.7450 c3         1 753      -0.101700
     17 C10         -2.9830     0.1670    -0.6090 c3         1 753      -0.035100
     18 C11         -4.4620     0.3750    -0.4410 ca         1 753      -0.065300
     19 C16         -5.3400    -0.7050    -0.4510 ca         1 753      -0.107500
     20 C15         -6.7020    -0.5180    -0.2540 ca         1 753      -0.115000
     21 C14         -7.2070     0.7590    -0.0430 ca         1 753      -0.123000
     22 C13         -6.3400     1.8440    -0.0290 ca         1 753      -0.115000
     23 C12         -4.9800     1.6510    -0.2260 ca         1 753      -0.107500
     24 H1          -0.4370    -4.0330    -0.6870 h1         1 753       0.029367
     25 H2           0.8680    -5.0210    -0.0170 h1         1 753       0.029367
     26 H3          -0.2040    -4.1200     1.0600 h1         1 753       0.029367
     27 H5           2.2160    -3.2240    -0.1430 hn         1 753       0.506000
     28 H6           4.0630    -2.4570     0.5260 hc         1 753       0.038700
     29 H7           3.7890    -2.3340    -1.2140 hc         1 753       0.038700
     30 H8           5.1420    -1.4880    -0.4720 hc         1 753       0.038700
     31 H9          -2.7070    -0.8700     1.2650 hc         1 753       0.055200
     32 H10         -2.4460     0.8730     1.3610 hc         1 753       0.055200
     33 H11         -2.5420     1.0200    -1.1290 hc         1 753       0.057700
     34 H12         -2.8000    -0.7130    -1.2290 hc         1 753       0.057700
     35 H13         -4.9570    -1.7050    -0.6210 ha         1 753       0.115000
     36 H14         -7.3710    -1.3690    -0.2680 ha         1 753       0.104000
     37 H15         -8.2690     0.9070     0.1060 ha         1 753       0.102000
     38 H16         -6.7240     2.8430     0.1320 ha         1 753       0.104000
     39 H17         -4.3100     2.5030    -0.2190 ha         1 753       0.115000
@<TRIPOS>BOND
     1     1     2 2   
     2     1     5 1   
     3     1    13 1   
     4     2     3 1   
     5     2    15 1   
     6     3     9 1   
     7     3    14 1   
     8     4     5 ar  
     9     4    11 ar  
    10     4    15 1   
    11     5     6 ar  
    12     6    10 ar  
    13     6    12 1   
    14     7    12 1   
    15     7    24 1   
    16     7    25 1   
    17     7    26 1   
    18     8    10 ar  
    19     8    11 ar  
    20     8    16 1   
    21    12    27 1   
    22    13    28 1   
    23    13    29 1   
    24    13    30 1   
    25    16    17 1   
    26    16    31 1   
    27    16    32 1   
    28    17    18 1   
    29    17    33 1   
    30    17    34 1   
    31    18    19 ar  
    32    18    23 ar  
    33    19    20 ar  
    34    19    35 1   
    35    20    21 ar  
    36    20    36 1   
    37    21    22 ar  
    38    21    37 1   
    39    22    23 ar  
    40    22    38 1   
    41    23    39 1   
@<TRIPOS>SUBSTRUCTURE
     1 753         1 TEMP              0 ****  ****    0 ROOT
