@<TRIPOS>MOLECULE
754
   64    65     1     0     0
SMALL
No Charge or Current Charge


@<TRIPOS>ATOM
      1 C1          -2.8940     0.9410    -0.4440 ca         1 754      -0.104300
      2 O1           0.0510    -2.0930    -0.4440 os         1 754      -0.333100
      3 C2          -2.7940     0.0600     0.6710 ca         1 754      -0.029300
      4 O2           6.4170     0.7790     1.9880 o          1 754      -0.722500
      5 C3          -1.9590     0.8180    -1.4970 ca         1 754      -0.077000
      6 O3           7.8030     1.1000     0.3860 o          1 754      -0.722500
      7 C4          -3.9710     2.0590    -0.5240 c6         1 754       0.010300
      8 C5          -1.8140    -0.9600     0.6470 ca         1 754      -0.202000
      9 C6          -3.7530     0.1560     1.8920 c6         1 754       0.001300
     10 C7          -0.9050    -1.0900    -0.4240 ca         1 754       0.158100
     11 C8          -0.9690    -0.1780    -1.5010 ca         1 754      -0.055800
     12 C9          -5.0980     1.8540     0.5270 c6         1 754      -0.064400
     13 C10         -4.5310     1.5020     1.9120 c6         1 754      -0.064400
     14 C11         -0.0240    -0.2380    -2.6630 ce         1 754      -0.112400
     15 C12          1.5670    -3.7750     0.3510 c3         1 754      -0.084400
     16 C13         -4.6470     2.1010    -1.9330 c3         1 754      -0.080600
     17 C14         -3.2710     3.4390    -0.3140 c3         1 754      -0.080600
     18 C15         -2.9730     0.0480     3.2430 c3         1 754      -0.080100
     19 C16         -4.7460    -1.0480     1.8410 c3         1 754      -0.080100
     20 C17          1.3360    -0.1490    -2.5810 cf         1 754      -0.110000
     21 C18         -0.6830    -0.4700    -4.0130 c3         1 754      -0.034900
     22 C19          2.1090     0.0580    -1.3600 cf         1 754      -0.257000
     23 C20          3.4700     0.0530    -1.2980 ce         1 754      -0.110000
     24 C21          4.3080     0.2360    -0.0940 ce         1 754      -0.150200
     25 C22          5.6300     0.5820    -0.2480 cf         1 754      -0.201200
     26 C23          3.6520    -0.0530     1.2560 c3         1 754      -0.040900
     27 C24          6.6860     0.8270     0.7970 c          1 754       0.696200
     28 C25          0.3470    -2.9030     0.7030 c3         1 754       0.164600
     29 C26          2.0300    -4.6630     1.5230 c3         1 754      -0.087100
     30 H3          -1.9850     1.5110    -2.3320 ha         1 754       0.110000
     31 H5          -1.7760    -1.6650     1.4700 ha         1 754       0.111000
     32 H9          -5.7140     2.7610     0.6030 hc         1 754       0.035700
     33 H9A         -5.7820     1.0610     0.1980 hc         1 754       0.035700
     34 H10         -5.3500     1.4550     2.6420 hc         1 754       0.038200
     35 H10A        -3.8750     2.3130     2.2560 hc         1 754       0.038200
     36 H12          1.3210    -4.4110    -0.5080 hc         1 754       0.063200
     37 H12A         2.3970    -3.1250     0.0450 hc         1 754       0.063200
     38 H13         -5.0490     1.1180    -2.2070 hc         1 754       0.032533
     39 H13A        -5.4820     2.8130    -1.9520 hc         1 754       0.032533
     40 H13B        -3.9570     2.4080    -2.7270 hc         1 754       0.032533
     41 H14         -2.5420     3.6450    -1.1070 hc         1 754       0.032533
     42 H14A        -3.9950     4.2620    -0.3130 hc         1 754       0.032533
     43 H14B        -2.7250     3.4760     0.6360 hc         1 754       0.032533
     44 H15         -2.1620     0.7860     3.2900 hc         1 754       0.032367
     45 H15A        -3.6340     0.2330     4.0990 hc         1 754       0.032367
     46 H15B        -2.5280    -0.9410     3.4010 hc         1 754       0.032367
     47 H16         -4.2210    -2.0060     1.9300 hc         1 754       0.032367
     48 H16A        -5.4790    -1.0010     2.6550 hc         1 754       0.032367
     49 H16B        -5.3010    -1.0770     0.8960 hc         1 754       0.032367
     50 H17          1.9080    -0.2380    -3.5070 ha         1 754       0.157000
     51 H18         -0.8140     0.4740    -4.5540 hc         1 754       0.028367
     52 H18A        -0.0830    -1.1360    -4.6450 hc         1 754       0.028367
     53 H18B        -1.6730    -0.9320    -3.9060 hc         1 754       0.028367
     54 H19          1.5380     0.2280    -0.4480 ha         1 754       0.177000
     55 H20          4.0120    -0.0870    -2.2350 ha         1 754       0.151000
     56 H22          5.9880     0.7180    -1.2690 ha         1 754       0.142000
     57 H23          2.7490    -0.6650     1.1650 hc         1 754       0.035700
     58 H23A         4.3150    -0.6230     1.9160 hc         1 754       0.035700
     59 H23B         3.3760     0.8750     1.7710 hc         1 754       0.035700
     60 H25          0.5900    -2.2710     1.5680 h1         1 754       0.027200
     61 H25A        -0.5060    -3.5440     0.9610 h1         1 754       0.027200
     62 H26          1.2290    -5.3450     1.8320 hc         1 754       0.032033
     63 H26A         2.8980    -5.2650     1.2270 hc         1 754       0.032033
     64 H26B         2.3160    -4.0490     2.3850 hc         1 754       0.032033
@<TRIPOS>BOND
     1     1     3 ar  
     2     1     5 ar  
     3     1     7 1   
     4     2    10 1   
     5     2    28 1   
     6     3     8 ar  
     7     3     9 1   
     8     4    27 1   
     9     5    11 ar  
    10     5    30 1   
    11     6    27 1   
    12     7    12 1   
    13     7    16 1   
    14     7    17 1   
    15     8    10 ar  
    16     8    31 1   
    17     9    13 1   
    18     9    18 1   
    19     9    19 1   
    20    10    11 ar  
    21    11    14 1   
    22    12    13 1   
    23    12    32 1   
    24    12    33 1   
    25    13    34 1   
    26    13    35 1   
    27    14    20 2   
    28    14    21 1   
    29    15    28 1   
    30    15    29 1   
    31    15    36 1   
    32    15    37 1   
    33    16    38 1   
    34    16    39 1   
    35    16    40 1   
    36    17    41 1   
    37    17    42 1   
    38    17    43 1   
    39    18    44 1   
    40    18    45 1   
    41    18    46 1   
    42    19    47 1   
    43    19    48 1   
    44    19    49 1   
    45    20    22 1   
    46    20    50 1   
    47    21    51 1   
    48    21    52 1   
    49    21    53 1   
    50    22    23 2   
    51    22    54 1   
    52    23    24 1   
    53    23    55 1   
    54    24    25 2   
    55    24    26 1   
    56    25    27 1   
    57    25    56 1   
    58    26    57 1   
    59    26    58 1   
    60    26    59 1   
    61    28    60 1   
    62    28    61 1   
    63    29    62 1   
    64    29    63 1   
    65    29    64 1   
@<TRIPOS>SUBSTRUCTURE
     1 754         1 TEMP              0 ****  ****    0 ROOT
