@<TRIPOS>MOLECULE
754
   64    65     1     0     0
SMALL
abcg2


@<TRIPOS>ATOM
      1 C1          -2.8580     0.9260    -0.4110 ca         1 754      -0.104300
      2 O1           0.0280    -2.0710    -0.5100 os         1 754      -0.333100
      3 C2          -2.7780     0.0210     0.6510 ca         1 754      -0.029300
      4 O2           6.3830     0.5450     1.9390 o          1 754      -0.722500
      5 C3          -1.9410     0.7890    -1.4540 ca         1 754      -0.077000
      6 O3           7.7970     0.2820     0.2420 o          1 754      -0.722500
      7 C4          -3.8700     2.0650    -0.4660 c6         1 754       0.010300
      8 C5          -1.8100    -0.9860     0.6100 ca         1 754      -0.202000
      9 C6          -3.7350     0.0480     1.8380 c6         1 754       0.001300
     10 C7          -0.9090    -1.1060    -0.4380 ca         1 754       0.158100
     11 C8          -0.9600    -0.1900    -1.4990 ca         1 754      -0.055800
     12 C9          -5.0050     1.8070     0.5290 c6         1 754      -0.064400
     13 C10         -4.4960     1.3760     1.8890 c6         1 754      -0.064400
     14 C11         -0.0490    -0.2760    -2.6650 ce         1 754      -0.112400
     15 C12          1.6260    -3.5790     0.4030 c3         1 754      -0.084400
     16 C13         -4.4910     2.1890    -1.8630 c3         1 754      -0.080600
     17 C14         -3.1580     3.3850    -0.1330 c3         1 754      -0.080600
     18 C15         -2.9820    -0.1100     3.1650 c3         1 754      -0.080100
     19 C16         -4.7270    -1.1160     1.6990 c3         1 754      -0.080100
     20 C17          1.2860    -0.1700    -2.5610 cf         1 754      -0.110000
     21 C18         -0.7110    -0.4960    -3.9930 c3         1 754      -0.034900
     22 C19          2.0290     0.0600    -1.3430 cf         1 754      -0.257000
     23 C20          3.3730     0.0350    -1.2990 ce         1 754      -0.110000
     24 C21          4.1960     0.2370    -0.1120 ce         1 754      -0.150200
     25 C22          5.5340     0.1810    -0.2690 cf         1 754      -0.201200
     26 C23          3.4850     0.4890     1.1840 c3         1 754      -0.040900
     27 C24          6.6490     0.3520     0.7340 c          1 754       0.696200
     28 C25          0.3420    -2.8160     0.6540 c3         1 754       0.164600
     29 C26          2.0110    -4.4200     1.6120 c3         1 754      -0.087100
     30 H3          -1.9720     1.4950    -2.2760 ha         1 754       0.110000
     31 H5          -1.7770    -1.7050     1.4180 ha         1 754       0.111000
     32 H9          -5.6110     2.7130     0.6170 hc         1 754       0.035700
     33 H9A         -5.6700     1.0390     0.1210 hc         1 754       0.035700
     34 H10         -5.3280     1.2780     2.5920 hc         1 754       0.038200
     35 H10A        -3.8470     2.1520     2.3070 hc         1 754       0.038200
     36 H12          1.5070    -4.2220    -0.4720 hc         1 754       0.063200
     37 H12A         2.4230    -2.8680     0.1700 hc         1 754       0.063200
     38 H13         -4.9350     1.2440    -2.1830 hc         1 754       0.032533
     39 H13A        -5.2800     2.9440    -1.8540 hc         1 754       0.032533
     40 H13B        -3.7650     2.4920    -2.6180 hc         1 754       0.032533
     41 H14         -2.3690     3.5960    -0.8580 hc         1 754       0.032533
     42 H14A        -3.8620     4.2200    -0.1560 hc         1 754       0.032533
     43 H14B        -2.6940     3.3650     0.8540 hc         1 754       0.032533
     44 H15         -2.1890     0.6330     3.2640 hc         1 754       0.032367
     45 H15A        -3.6750     0.0260     3.9990 hc         1 754       0.032367
     46 H15B        -2.5360    -1.0990     3.2820 hc         1 754       0.032367
     47 H16         -4.2090    -2.0760     1.6710 hc         1 754       0.032367
     48 H16A        -5.4120    -1.1330     2.5490 hc         1 754       0.032367
     49 H16B        -5.3250    -1.0390     0.7890 hc         1 754       0.032367
     50 H17          1.8760    -0.2660    -3.4690 ha         1 754       0.157000
     51 H18         -1.4520     0.2800    -4.2040 hc         1 754       0.028367
     52 H18A         0.0110    -0.5030    -4.8090 hc         1 754       0.028367
     53 H18B        -1.2510    -1.4460    -4.0040 hc         1 754       0.028367
     54 H19          1.4620     0.2620    -0.4410 ha         1 754       0.177000
     55 H20          3.9120    -0.1640    -2.2230 ha         1 754       0.151000
     56 H22          5.8870    -0.0130    -1.2800 ha         1 754       0.142000
     57 H23          2.7660    -0.3080     1.3890 hc         1 754       0.035700
     58 H23A         4.1840     0.5520     2.0080 hc         1 754       0.035700
     59 H23B         2.9130     1.4190     1.1360 hc         1 754       0.035700
     60 H25          0.4690    -2.1430     1.5110 h1         1 754       0.027200
     61 H25A        -0.4720    -3.5090     0.9000 h1         1 754       0.027200
     62 H26          1.2570    -5.1790     1.8250 hc         1 754       0.032033
     63 H26A         2.9580    -4.9330     1.4440 hc         1 754       0.032033
     64 H26B         2.1250    -3.8050     2.5070 hc         1 754       0.032033
@<TRIPOS>BOND
     1     1     3 ar  
     2     1     5 ar  
     3     1     7 1   
     4     2    10 1   
     5     2    28 1   
     6     3     8 ar  
     7     3     9 1   
     8     4    27 1   
     9     5    11 ar  
    10     5    30 1   
    11     6    27 1   
    12     7    12 1   
    13     7    16 1   
    14     7    17 1   
    15     8    10 ar  
    16     8    31 1   
    17     9    13 1   
    18     9    18 1   
    19     9    19 1   
    20    10    11 ar  
    21    11    14 1   
    22    12    13 1   
    23    12    32 1   
    24    12    33 1   
    25    13    34 1   
    26    13    35 1   
    27    14    20 2   
    28    14    21 1   
    29    15    28 1   
    30    15    29 1   
    31    15    36 1   
    32    15    37 1   
    33    16    38 1   
    34    16    39 1   
    35    16    40 1   
    36    17    41 1   
    37    17    42 1   
    38    17    43 1   
    39    18    44 1   
    40    18    45 1   
    41    18    46 1   
    42    19    47 1   
    43    19    48 1   
    44    19    49 1   
    45    20    22 1   
    46    20    50 1   
    47    21    51 1   
    48    21    52 1   
    49    21    53 1   
    50    22    23 2   
    51    22    54 1   
    52    23    24 1   
    53    23    55 1   
    54    24    25 2   
    55    24    26 1   
    56    25    27 1   
    57    25    56 1   
    58    26    57 1   
    59    26    58 1   
    60    26    59 1   
    61    28    60 1   
    62    28    61 1   
    63    29    62 1   
    64    29    63 1   
    65    29    64 1   
@<TRIPOS>SUBSTRUCTURE
     1 754         1 TEMP              0 ****  ****    0 ROOT
