@<TRIPOS>MOLECULE
755
   48    49     1     0     0
SMALL
bcc


@<TRIPOS>ATOM
      1 O1          -5.1260    -1.9290     0.3970 o          1 755      -0.829300
      2 C7           4.5690     2.6270    -0.7640 c3         1 755      -0.080433
      3 O2          -3.0500    -2.6840     0.1840 o          1 755      -0.829300
      4 C6           2.6550     2.2480     0.7930 c3         1 755      -0.080433
      5 C1           1.9970    -3.6400     1.2630 c5         1 755      -0.084400
      6 C5           3.9160     1.6220     0.1800 c3         1 755      -0.127000
      7 C4           3.4930     0.3760    -0.6100 c          1 755       0.672100
      8 C3           2.5760    -1.9130    -0.4160 c5         1 755       0.109700
      9 C2           3.1290    -3.1390     0.3400 c5         1 755      -0.096400
     10 CL          -2.2350     3.9390    -0.8660 cl         1 755      -0.188400
     11 C13         -2.7050     2.2910    -0.5720 ca         1 755       0.079400
     12 C14         -4.0350     2.0050    -0.3110 ca         1 755      -0.228000
     13 C12         -1.7330     1.3120    -0.6120 ca         1 755      -0.273000
     14 C11         -2.0760    -0.0350    -0.3800 ca         1 755       0.243600
     15 C16         -3.4370    -0.3550    -0.1060 ca         1 755      -0.225600
     16 C17         -3.9130    -1.7690     0.1800 c          1 755       0.935200
     17 C15         -4.3650     0.6760    -0.0850 ca         1 755      -0.054000
     18 C10          0.2790    -0.7550    -0.5290 c3         1 755       0.254800
     19 C9           1.0500    -2.0300    -0.2430 c5         1 755      -0.094700
     20 C            0.9000    -2.5770     1.1760 c5         1 755      -0.080400
     21 N            3.1000    -0.6770     0.1320 ns         1 755      -0.567900
     22 O            3.4890     0.3530    -1.8330 o          1 755      -0.612100
     23 C8           4.9120     1.2660     1.2910 c3         1 755      -0.080433
     24 H2           4.8420     3.5230    -0.2050 hc         1 755       0.038811
     25 H3           5.4790     2.2290    -1.2160 hc         1 755       0.038811
     26 H4           3.9000     2.9300    -1.5700 hc         1 755       0.038811
     27 H5           1.9070     2.4650     0.0270 hc         1 755       0.038811
     28 H6           2.1930     1.5990     1.5390 hc         1 755       0.038811
     29 H7           2.9090     3.1870     1.2870 hc         1 755       0.038811
     30 H8           1.6130    -4.5950     0.9000 hc         1 755       0.039700
     31 H9           2.3360    -3.8040     2.2850 hc         1 755       0.039700
     32 H10         -1.5000    -1.9250    -0.1990 hn         1 755       0.502800
     33 H11          2.8520    -1.9330    -1.4690 h1         1 755       0.082700
     34 H12          4.0280    -2.8710     0.8960 hc         1 755       0.040700
     35 H13          3.4240    -3.9120    -0.3700 hc         1 755       0.040700
     36 H14         -4.7850     2.7830    -0.2850 ha         1 755       0.123000
     37 H15         -0.7110     1.5870    -0.8350 ha         1 755       0.123000
     38 H16         -5.3970     0.4260     0.1240 ha         1 755       0.147000
     39 H17          0.5420    -0.3790    -1.5270 h1         1 755       0.027200
     40 H18          0.5840     0.0220     0.1830 h1         1 755       0.027200
     41 H19          0.7160    -2.8050    -0.9450 hc         1 755       0.069700
     42 H20         -0.0930    -2.9780     1.3820 hc         1 755       0.059200
     43 H21          1.0740    -1.7760     1.9030 hc         1 755       0.059200
     44 H22          3.1120    -0.5870     1.1360 hn         1 755       0.309500
     45 H23          5.2580     2.1790     1.7780 hc         1 755       0.038811
     46 H24          4.4780     0.6400     2.0720 hc         1 755       0.038811
     47 H25          5.7880     0.7490     0.8950 hc         1 755       0.038811
     48 N1          -1.1330    -0.9990    -0.4200 nu         1 755      -0.802600
@<TRIPOS>BOND
     1     1    16 1   
     2     2     6 1   
     3     2    24 1   
     4     2    25 1   
     5     2    26 1   
     6     3    16 1   
     7     4     6 1   
     8     4    27 1   
     9     4    28 1   
    10     4    29 1   
    11     5     9 1   
    12     5    20 1   
    13     5    30 1   
    14     5    31 1   
    15     6     7 1   
    16     6    23 1   
    17     7    21 1   
    18     7    22 2   
    19     8     9 1   
    20     8    19 1   
    21     8    21 1   
    22     8    33 1   
    23     9    34 1   
    24     9    35 1   
    25    10    11 1   
    26    11    12 ar  
    27    11    13 ar  
    28    12    17 ar  
    29    12    36 1   
    30    13    14 ar  
    31    13    37 1   
    32    14    15 ar  
    33    14    48 1   
    34    15    16 1   
    35    15    17 ar  
    36    17    38 1   
    37    18    19 1   
    38    18    39 1   
    39    18    40 1   
    40    18    48 1   
    41    19    20 1   
    42    19    41 1   
    43    20    42 1   
    44    20    43 1   
    45    21    44 1   
    46    23    45 1   
    47    23    46 1   
    48    23    47 1   
    49    32    48 1   
@<TRIPOS>SUBSTRUCTURE
     1 755         1 TEMP              0 ****  ****    0 ROOT
