@<TRIPOS>MOLECULE
755
   48    49     1     0     0
SMALL
No Charge or Current Charge


@<TRIPOS>ATOM
      1 O1          -4.8320    -1.9790     1.0850 o          1 755      -0.724000
      2 C7           5.1650     2.1840    -0.2550 c3         1 755      -0.080433
      3 O2          -2.7370    -2.4210     1.2090 o          1 755      -0.724000
      4 C6           2.7120     2.7980    -0.0080 c3         1 755      -0.080433
      5 C1           2.1300    -3.8510     0.7900 c5         1 755      -0.084400
      6 C5           3.7720     1.6840     0.2150 c3         1 755      -0.127000
      7 C4           3.3710     0.4390    -0.6420 c          1 755       0.605100
      8 C3           2.6700    -1.9260    -0.6780 c5         1 755       0.109700
      9 C2           3.3190    -3.1360     0.0810 c5         1 755      -0.096400
     10 Cl          -2.6050     3.8120    -1.5210 cl         1 755      -0.280000
     11 C13         -2.8970     2.2290    -0.8170 ca         1 755       0.171000
     12 C14         -4.1150     1.9580    -0.1860 ca         1 755      -0.210000
     13 C12         -1.9100     1.2420    -0.8890 ca         1 755      -0.255000
     14 C11         -2.1300    -0.0260    -0.3250 ca         1 755       0.382000
     15 C16         -3.3600    -0.3190     0.3100 ca         1 755      -0.225600
     16 C17         -3.6610    -1.6760     0.9100 c          1 755       0.724600
     17 C15         -4.3490     0.6930     0.3720 ca         1 755      -0.036000
     18 C10          0.3120    -0.7340    -0.5200 c3         1 755       0.254800
     19 C9           1.1320    -2.0420    -0.3910 c5         1 755      -0.094700
     20 C            1.1220    -2.6990     1.0190 c5         1 755      -0.080400
     21 N            3.1470    -0.7390     0.0510 ns         1 755      -0.500900
     22 O            3.2460     0.5080    -1.8590 o          1 755      -0.612100
     23 C8           3.8450     1.3710     1.7410 c3         1 755      -0.080433
     24 H2           5.4820     3.0630     0.3190 hc         1 755       0.038811
     25 H3           5.9230     1.4020    -0.1250 hc         1 755       0.038811
     26 H4           5.1480     2.4640    -1.3150 hc         1 755       0.038811
     27 H5           2.6610     3.0890    -1.0640 hc         1 755       0.038811
     28 H6           1.7160     2.4530     0.2950 hc         1 755       0.038811
     29 H7           2.9540     3.6940     0.5760 hc         1 755       0.038811
     30 H8           1.7000    -4.6330     0.1510 hc         1 755       0.039700
     31 H9           2.4340    -4.3330     1.7260 hc         1 755       0.039700
     32 H10         -1.3910    -1.8120     0.1520 hn         1 755       0.558000
     33 H11          2.9090    -1.9230    -1.7520 h1         1 755       0.082700
     34 H12          4.0830    -2.8270     0.8050 hc         1 755       0.040700
     35 H13          3.8210    -3.8170    -0.6160 hc         1 755       0.040700
     36 H14         -4.8810     2.7280    -0.1310 ha         1 755       0.105000
     37 H15         -0.9750     1.4730    -1.3870 ha         1 755       0.105000
     38 H16         -5.3050     0.5010     0.8570 ha         1 755       0.129000
     39 H17          0.5290    -0.2770    -1.4950 h1         1 755       0.027200
     40 H18          0.6220    -0.0290     0.2630 h1         1 755       0.027200
     41 H19          0.6970    -2.7340    -1.1240 hc         1 755       0.069700
     42 H20          0.1320    -3.0720     1.3040 hc         1 755       0.059200
     43 H21          1.4510    -2.0110     1.8080 hc         1 755       0.059200
     44 H22          3.2810    -0.7180     1.0540 hn         1 755       0.309500
     45 H23          4.1250     2.2680     2.3080 hc         1 755       0.038811
     46 H24          2.8750     1.0300     2.1250 hc         1 755       0.038811
     47 H25          4.5960     0.6010     1.9550 hc         1 755       0.038811
     48 N1          -1.1290    -0.9850    -0.4060 nu         1 755      -0.996200
@<TRIPOS>BOND
     1     1    16 1   
     2     2     6 1   
     3     2    24 1   
     4     2    25 1   
     5     2    26 1   
     6     3    16 1   
     7     4     6 1   
     8     4    27 1   
     9     4    28 1   
    10     4    29 1   
    11     5     9 1   
    12     5    20 1   
    13     5    30 1   
    14     5    31 1   
    15     6     7 1   
    16     6    23 1   
    17     7    21 1   
    18     7    22 2   
    19     8     9 1   
    20     8    19 1   
    21     8    21 1   
    22     8    33 1   
    23     9    34 1   
    24     9    35 1   
    25    10    11 1   
    26    11    12 ar  
    27    11    13 ar  
    28    12    17 ar  
    29    12    36 1   
    30    13    14 ar  
    31    13    37 1   
    32    14    15 ar  
    33    14    48 1   
    34    15    16 1   
    35    15    17 ar  
    36    17    38 1   
    37    18    19 1   
    38    18    39 1   
    39    18    40 1   
    40    18    48 1   
    41    19    20 1   
    42    19    41 1   
    43    20    42 1   
    44    20    43 1   
    45    21    44 1   
    46    23    45 1   
    47    23    46 1   
    48    23    47 1   
    49    32    48 1   
@<TRIPOS>SUBSTRUCTURE
     1 755         1 TEMP              0 ****  ****    0 ROOT
