@<TRIPOS>MOLECULE
756
   48    52     1     0     0
SMALL
No Charge or Current Charge


@<TRIPOS>ATOM
      1 O1          -0.6880     2.1830    -0.2100 o          1 756      -0.582100
      2 C9          -1.1840     1.0630    -0.1680 c          1 756       0.615700
      3 C5          -2.6870     0.8950    -0.2100 ca         1 756      -0.165600
      4 C4          -3.3360    -0.1280     0.5330 ca         1 756      -0.034000
      5 C6          -3.4690     1.8230    -0.9560 ca         1 756      -0.052000
      6 C7          -4.8770     1.7180    -1.0010 ca         1 756      -0.111000
      7 C8          -5.4670     0.6810    -0.2770 ca         1 756       0.076100
      8 C3          -4.7320    -0.2090     0.4670 ca         1 756      -0.119800
      9 C2          -5.6610    -1.1240     1.0980 cc         1 756      -0.235200
     10 O           -6.7900     0.3840    -0.1560 os         1 756      -0.175200
     11 C1          -6.9120    -0.7050     0.6720 cd         1 756       0.036900
     12 C           -8.2810    -1.2460     0.9780 c3         1 756      -0.032900
     13 N           -0.3720    -0.0800     0.0210 n          1 756      -0.404800
     14 C14          1.0640     0.0480     0.3940 c6         1 756       0.094000
     15 C13          1.9990    -0.1890    -0.8180 c6         1 756      -0.111000
     16 C12          1.7050    -1.5700    -1.4630 c6         1 756      -0.071400
     17 C11          0.2070    -1.6830    -1.8290 c6         1 756      -0.103400
     18 C10         -0.6960    -1.3950    -0.6050 c6         1 756       0.098000
     19 C15          3.4440    -0.0680    -0.4000 cc         1 756       0.420800
     20 N2           4.0770    -0.9440     0.4830 na         1 756      -0.317600
     21 C21          5.3610    -0.5190     0.6240 ca         1 756      -0.080200
     22 C16          5.4930     0.5900    -0.1570 ca         1 756       0.069400
     23 N1           4.3010     0.8910    -0.8090 nd         1 756      -0.567100
     24 C20          6.4080    -1.0440     1.3910 ca         1 756      -0.118000
     25 C19          7.6490    -0.3760     1.3360 ca         1 756      -0.092000
     26 C18          7.8030     0.7770     0.5290 ca         1 756      -0.136000
     27 C17          6.7170     1.2710    -0.2290 ca         1 756      -0.046000
     28 H1          -2.7770    -0.8260     1.1520 ha         1 756       0.125000
     29 H2          -2.9810     2.6240    -1.5090 ha         1 756       0.132000
     30 H3          -5.4800     2.4180    -1.5730 ha         1 756       0.135000
     31 H4          -5.4480    -1.9600     1.7610 ha         1 756       0.213000
     32 H5          -8.9030    -0.4850     1.4630 hc         1 756       0.058700
     33 H6          -8.7900    -1.5640     0.0610 hc         1 756       0.058700
     34 H7          -8.2240    -2.1110     1.6480 hc         1 756       0.058700
     35 H8           1.2620     1.0400     0.8260 h1         1 756       0.064700
     36 H9           1.2860    -0.6880     1.1810 h1         1 756       0.064700
     37 H10          1.7850     0.5900    -1.5620 hc         1 756       0.100700
     38 H11          2.3220    -1.7070    -2.3620 hc         1 756       0.045200
     39 H12          1.9720    -2.3810    -0.7710 hc         1 756       0.045200
     40 H13         -0.0310    -0.9730    -2.6320 hc         1 756       0.054200
     41 H14         -0.0090    -2.6850    -2.2240 hc         1 756       0.054200
     42 H15         -0.5650    -2.1890     0.1440 h1         1 756       0.055700
     43 H16         -1.7400    -1.4310    -0.9410 h1         1 756       0.055700
     44 H17          3.6530    -1.7490     0.9240 hn         1 756       0.353000
     45 H19          6.2710    -1.9310     2.0060 ha         1 756       0.115000
     46 H20          8.4910    -0.7490     1.9160 ha         1 756       0.111000
     47 H21          8.7630     1.2870     0.4920 ha         1 756       0.114000
     48 H22          6.8240     2.1560    -0.8510 ha         1 756       0.129000
@<TRIPOS>BOND
     1     1     2 2   
     2     2     3 1   
     3     2    13 1   
     4     3     4 ar  
     5     3     5 ar  
     6     4     8 ar  
     7     4    28 1   
     8     5     6 ar  
     9     5    29 1   
    10     6     7 ar  
    11     6    30 1   
    12     7     8 ar  
    13     7    10 1   
    14     8     9 1   
    15     9    11 2   
    16     9    31 1   
    17    10    11 1   
    18    11    12 1   
    19    12    32 1   
    20    12    33 1   
    21    12    34 1   
    22    13    14 1   
    23    13    18 1   
    24    14    15 1   
    25    14    35 1   
    26    14    36 1   
    27    15    16 1   
    28    15    19 1   
    29    15    37 1   
    30    16    17 1   
    31    16    38 1   
    32    16    39 1   
    33    17    18 1   
    34    17    40 1   
    35    17    41 1   
    36    18    42 1   
    37    18    43 1   
    38    19    20 1   
    39    19    23 2   
    40    20    21 1   
    41    20    44 1   
    42    21    22 ar  
    43    21    24 ar  
    44    22    23 1   
    45    22    27 ar  
    46    24    25 ar  
    47    24    45 1   
    48    25    26 ar  
    49    25    46 1   
    50    26    27 ar  
    51    26    47 1   
    52    27    48 1   
@<TRIPOS>SUBSTRUCTURE
     1 756         1 TEMP              0 ****  ****    0 ROOT
