@<TRIPOS>MOLECULE
756
   48    52     1     0     0
SMALL
bcc


@<TRIPOS>ATOM
      1 O1          -0.6780     1.9960     0.3470 o          1 756      -0.582100
      2 C9          -1.1220     0.8710     0.1630 c          1 756       0.682700
      3 C5          -2.5910     0.6890    -0.0450 ca         1 756      -0.165600
      4 C4          -3.3140    -0.2130     0.7260 ca         1 756      -0.052000
      5 C6          -3.2400     1.5390    -0.9530 ca         1 756      -0.070000
      6 C7          -4.6120     1.4900    -1.1370 ca         1 756      -0.129000
      7 C8          -5.3080     0.5840    -0.3580 ca         1 756       0.076100
      8 C3          -4.6970    -0.2620     0.5710 ca         1 756      -0.119800
      9 C2          -5.7680    -1.0160     1.1590 cc         1 756      -0.185200
     10 O           -6.6410     0.3810    -0.3600 os         1 756      -0.175200
     11 C1          -6.9040    -0.5910     0.5640 cd         1 756       0.036900
     12 C           -8.3200    -0.9770     0.7380 c3         1 756      -0.032900
     13 N           -0.3440    -0.2370     0.1910 n          1 756      -0.471800
     14 C14          1.0580    -0.1160     0.5400 c6         1 756       0.094000
     15 C13          1.9440    -0.2070    -0.7110 c6         1 756      -0.111000
     16 C12          1.6560    -1.5150    -1.4580 c6         1 756      -0.071400
     17 C11          0.1660    -1.6510    -1.7410 c6         1 756      -0.103400
     18 C10         -0.6670    -1.4930    -0.4740 c6         1 756       0.098000
     19 C15          3.3840    -0.0510    -0.3630 cc         1 756       0.420800
     20 N2           4.0580    -0.9540     0.4010 na         1 756      -0.267300
     21 C21          5.3460    -0.5050     0.5340 ca         1 756      -0.080200
     22 C16          5.3750     0.6980    -0.1890 ca         1 756       0.069400
     23 N1           4.1370     0.9500    -0.7320 nd         1 756      -0.567100
     24 C20          6.4590    -1.0120     1.1940 ca         1 756      -0.136000
     25 C19          7.6230    -0.2670     1.1080 ca         1 756      -0.110000
     26 C18          7.6730     0.9370     0.3890 ca         1 756      -0.154000
     27 C17          6.5580     1.4330    -0.2640 ca         1 756      -0.064000
     28 H1          -2.8190    -0.8550     1.4440 ha         1 756       0.143000
     29 H2          -2.6560     2.2440    -1.5300 ha         1 756       0.150000
     30 H3          -5.1100     2.1350    -1.8480 ha         1 756       0.153000
     31 H4          -5.7010    -1.7760     1.9210 ha         1 756       0.163000
     32 H5          -8.9250    -0.1330     1.0740 hc         1 756       0.058700
     33 H6          -8.7530    -1.3410    -0.1960 hc         1 756       0.058700
     34 H7          -8.3980    -1.7680     1.4800 hc         1 756       0.058700
     35 H8           1.2250     0.8210     1.0650 h1         1 756       0.064700
     36 H9           1.3000    -0.9300     1.2320 h1         1 756       0.064700
     37 H10          1.6980     0.6350    -1.3640 hc         1 756       0.100700
     38 H11          2.2260    -1.5440    -2.3880 hc         1 756       0.045200
     39 H12          1.9880    -2.3710    -0.8610 hc         1 756       0.045200
     40 H13         -0.1460    -0.8950    -2.4690 hc         1 756       0.054200
     41 H14         -0.0450    -2.6270    -2.1820 hc         1 756       0.054200
     42 H15         -0.4650    -2.3160     0.2190 h1         1 756       0.055700
     43 H16         -1.7230    -1.5330    -0.7200 h1         1 756       0.055700
     44 H17          3.6870    -1.8060     0.7900 hn         1 756       0.302700
     45 H19          6.4230    -1.9400     1.7490 ha         1 756       0.133000
     46 H20          8.5150    -0.6210     1.6070 ha         1 756       0.129000
     47 H21          8.6040     1.4860     0.3440 ha         1 756       0.132000
     48 H22          6.5990     2.3630    -0.8180 ha         1 756       0.147000
@<TRIPOS>BOND
     1     1     2 2   
     2     2     3 1   
     3     2    13 1   
     4     3     4 ar  
     5     3     5 ar  
     6     4     8 ar  
     7     4    28 1   
     8     5     6 ar  
     9     5    29 1   
    10     6     7 ar  
    11     6    30 1   
    12     7     8 ar  
    13     7    10 1   
    14     8     9 1   
    15     9    11 2   
    16     9    31 1   
    17    10    11 1   
    18    11    12 1   
    19    12    32 1   
    20    12    33 1   
    21    12    34 1   
    22    13    14 1   
    23    13    18 1   
    24    14    15 1   
    25    14    35 1   
    26    14    36 1   
    27    15    16 1   
    28    15    19 1   
    29    15    37 1   
    30    16    17 1   
    31    16    38 1   
    32    16    39 1   
    33    17    18 1   
    34    17    40 1   
    35    17    41 1   
    36    18    42 1   
    37    18    43 1   
    38    19    20 1   
    39    19    23 2   
    40    20    21 1   
    41    20    44 1   
    42    21    22 ar  
    43    21    24 ar  
    44    22    23 1   
    45    22    27 ar  
    46    24    25 ar  
    47    24    45 1   
    48    25    26 ar  
    49    25    46 1   
    50    26    27 ar  
    51    26    47 1   
    52    27    48 1   
@<TRIPOS>SUBSTRUCTURE
     1 756         1 TEMP              0 ****  ****    0 ROOT
