@<TRIPOS>MOLECULE
758
   42    43     1     0     0
SMALL
No Charge or Current Charge


@<TRIPOS>ATOM
      1 C7          -1.1770    -1.3370    -0.1200 ca         1 758      -0.095300
      2 C6           1.1490    -0.6290    -0.5120 ca         1 758      -0.146600
      3 C1          -1.1890    -1.9940    -1.3600 ca         1 758      -0.073000
      4 C5           4.6510     1.5960     3.6690 cc         1 758       0.245900
      5 C4           5.2880     2.0660     2.5530 cd         1 758      -0.230000
      6 C3          -0.0160    -0.6590     0.2980 ca         1 758      -0.069000
      7 C2          -0.0470    -1.9760    -2.1720 ca         1 758      -0.108000
      8 C8           1.1160    -1.3020    -1.7620 ca         1 758       0.164000
      9 C9           3.4990     0.8520     2.0180 cd         1 758       0.519400
     10 C10          2.3770     0.1210    -0.0410 c          1 758       0.632700
     11 C11         -4.2550    -0.0910    -0.4330 c          1 758       0.600100
     12 C12         -6.5020     1.0700    -0.2890 c3         1 758      -0.082100
     13 C13         -4.4440     2.3730     0.3860 c3         1 758      -0.082100
     14 C14         -4.8100     1.7820    -2.0430 c3         1 758      -0.082100
     15 C15         -2.4210    -1.3400     0.7580 c3         1 758       0.154300
     16 C16         -4.9910     1.2810    -0.5840 c3         1 758      -0.123000
     17 N17          4.5380     1.5820     1.4910 na         1 758      -0.299500
     18 N18          3.5530     0.8510     3.3330 nc         1 758      -0.723000
     19 N19          2.5280     0.2050     1.3210 ns         1 758      -0.474400
     20 N20         -3.2490    -0.1600     0.5070 ns         1 758      -0.516900
     21 O21          3.1570     0.6720    -0.8050 o          1 758      -0.580100
     22 O22         -4.5500    -1.0640    -1.1140 o          1 758      -0.586100
     23 Cl23         2.5120    -1.3970    -2.8400 cl         1 758      -0.172000
     24 H1          -2.0820    -2.5170    -1.6950 ha         1 758       0.122000
     25 H2           4.9150     1.7480     4.7080 h4         1 758       0.038100
     26 H3           6.1760     2.6800     2.4470 h4         1 758       0.161000
     27 H4          -0.0440    -0.1310     1.2480 ha         1 758       0.123000
     28 H5          -0.0590    -2.4940    -3.1280 ha         1 758       0.135000
     29 H6          -7.0580     2.0110    -0.3900 hc         1 758       0.041589
     30 H7          -6.9430     0.3440    -0.9820 hc         1 758       0.041589
     31 H8          -6.6500     0.6960     0.7320 hc         1 758       0.041589
     32 H9          -4.5680     2.0740     1.4340 hc         1 758       0.041589
     33 H10         -3.3810     2.5730     0.2020 hc         1 758       0.041589
     34 H11         -4.9840     3.3190     0.2490 hc         1 758       0.041589
     35 H12         -5.3160     2.7440    -2.1950 hc         1 758       0.041589
     36 H13         -3.7470     1.9160    -2.2790 hc         1 758       0.041589
     37 H14         -5.2270     1.0660    -2.7620 hc         1 758       0.041589
     38 H15         -3.0080    -2.2500     0.5780 h1         1 758       0.061200
     39 H16         -2.1260    -1.3440     1.8160 h1         1 758       0.061200
     40 H17          4.6950     1.7170     0.4990 hn         1 758       0.383000
     41 H19          1.8420    -0.2980     1.8600 hn         1 758       0.351500
     42 H20         -3.0570     0.6820     1.0340 hn         1 758       0.318500
@<TRIPOS>BOND
     1     1     3 ar  
     2     1     6 ar  
     3     1    15 1   
     4     2     6 ar  
     5     2     8 ar  
     6     2    10 1   
     7     3     7 ar  
     8     3    24 1   
     9     4     5 2   
    10     4    18 1   
    11     4    25 1   
    12     5    17 1   
    13     5    26 1   
    14     6    27 1   
    15     7     8 ar  
    16     7    28 1   
    17     8    23 1   
    18     9    17 1   
    19     9    18 2   
    20     9    19 1   
    21    10    19 1   
    22    10    21 2   
    23    11    16 1   
    24    11    20 1   
    25    11    22 2   
    26    12    16 1   
    27    12    29 1   
    28    12    30 1   
    29    12    31 1   
    30    13    16 1   
    31    13    32 1   
    32    13    33 1   
    33    13    34 1   
    34    14    16 1   
    35    14    35 1   
    36    14    36 1   
    37    14    37 1   
    38    15    20 1   
    39    15    38 1   
    40    15    39 1   
    41    17    40 1   
    42    19    41 1   
    43    20    42 1   
@<TRIPOS>SUBSTRUCTURE
     1 758         1 TEMP              0 ****  ****    0 ROOT
