@<TRIPOS>MOLECULE
758
   42    43     1     0     0
SMALL
abcg2


@<TRIPOS>ATOM
      1 C7          -1.4440    -2.1610    -0.2730 ca         1 758      -0.095300
      2 C6           0.7350    -1.2010    -0.7490 ca         1 758      -0.146600
      3 C1          -1.0720    -3.2990    -0.9810 ca         1 758      -0.073000
      4 C5           3.3330     3.2060     2.0630 cc         1 758       0.245900
      5 C4           3.7200     3.4270     0.7760 cd         1 758      -0.230000
      6 C3          -0.5250    -1.1290    -0.1600 ca         1 758      -0.069000
      7 C2           0.1820    -3.4020    -1.5590 ca         1 758      -0.108000
      8 C8           1.0790    -2.3510    -1.4530 ca         1 758       0.164000
      9 C9           2.4810     1.6370     0.9170 cd         1 758       0.519400
     10 C10          1.6390    -0.0170    -0.6700 c          1 758       0.632700
     11 C11         -3.6450     0.1130    -0.2380 c          1 758       0.600100
     12 C12         -4.5280     2.3510    -0.9060 c3         1 758      -0.082100
     13 C13         -5.0980     1.4260     1.3390 c3         1 758      -0.082100
     14 C14         -2.7530     2.1730     0.8430 c3         1 758      -0.082100
     15 C15         -2.8060    -2.0930     0.3780 c3         1 758       0.154300
     16 C16         -4.0110     1.5130     0.2600 c3         1 758      -0.123000
     17 N17          3.1630     2.4060     0.0500 na         1 758      -0.299500
     18 N18          2.5560     2.0810     2.1420 nc         1 758      -0.723000
     19 N19          1.7690     0.4990     0.5760 ns         1 758      -0.474400
     20 N20         -3.2390    -0.7610     0.7070 ns         1 758      -0.516900
     21 O21          2.1840     0.4580    -1.6500 o          1 758      -0.580100
     22 O22         -3.6910    -0.2090    -1.4150 o          1 758      -0.586100
     23 CL23         2.6440    -2.5300    -2.1680 cl         1 758      -0.172000
     24 H1          -1.7690    -4.1210    -1.0870 ha         1 758       0.122000
     25 H2           3.5680     3.7930     2.9360 h4         1 758       0.038100
     26 H3           4.3220     4.1910     0.3180 h4         1 758       0.161000
     27 H4          -0.8020    -0.2320     0.3800 ha         1 758       0.123000
     28 H5           0.4600    -4.2980    -2.0980 ha         1 758       0.135000
     29 H6          -4.7710     3.3540    -0.5530 hc         1 758       0.041589
     30 H7          -3.7870     2.4490    -1.6990 hc         1 758       0.041589
     31 H8          -5.4330     1.9250    -1.3410 hc         1 758       0.041589
     32 H9          -5.9890     0.9180     0.9680 hc         1 758       0.041589
     33 H10         -4.7640     0.9030     2.2360 hc         1 758       0.041589
     34 H11         -5.3910     2.4300     1.6460 hc         1 758       0.041589
     35 H12         -2.9740     3.2010     1.1310 hc         1 758       0.041589
     36 H13         -2.3900     1.6570     1.7320 hc         1 758       0.041589
     37 H14         -1.9420     2.2020     0.1130 hc         1 758       0.041589
     38 H15         -3.5380    -2.5800    -0.2690 h1         1 758       0.061200
     39 H16         -2.7840    -2.6670     1.3050 h1         1 758       0.061200
     40 H17          3.2510     2.2440    -0.9410 hn         1 758       0.383000
     41 H19          1.3570     0.0120     1.3580 hn         1 758       0.351500
     42 H20         -3.2010    -0.4790     1.6710 hn         1 758       0.318500
@<TRIPOS>BOND
     1     1     3 ar  
     2     1     6 ar  
     3     1    15 1   
     4     2     6 ar  
     5     2     8 ar  
     6     2    10 1   
     7     3     7 ar  
     8     3    24 1   
     9     4     5 2   
    10     4    18 1   
    11     4    25 1   
    12     5    17 1   
    13     5    26 1   
    14     6    27 1   
    15     7     8 ar  
    16     7    28 1   
    17     8    23 1   
    18     9    17 1   
    19     9    18 2   
    20     9    19 1   
    21    10    19 1   
    22    10    21 2   
    23    11    16 1   
    24    11    20 1   
    25    11    22 2   
    26    12    16 1   
    27    12    29 1   
    28    12    30 1   
    29    12    31 1   
    30    13    16 1   
    31    13    32 1   
    32    13    33 1   
    33    13    34 1   
    34    14    16 1   
    35    14    35 1   
    36    14    36 1   
    37    14    37 1   
    38    15    20 1   
    39    15    38 1   
    40    15    39 1   
    41    17    40 1   
    42    19    41 1   
    43    20    42 1   
@<TRIPOS>SUBSTRUCTURE
     1 758         1 TEMP              0 ****  ****    0 ROOT
