@<TRIPOS>MOLECULE
759
  131   137     1     0     0
SMALL
No Charge or Current Charge


@<TRIPOS>ATOM
      1 CAA         12.7660   -27.7480   -12.9150 c3         1 759      -0.035900
      2 CBZ         13.4780   -28.3410   -11.7140 c2         1 759       0.053800
      3 NBI         12.6560   -28.8760   -10.7220 nu         1 759      -0.764200
      4 CAV         13.4770   -29.1700    -9.5160 c5         1 759       0.317800
      5 SBR         15.2740   -29.2550    -9.9940 ss         1 759      -0.395600
      6 CCH         14.8010   -28.4600   -11.5020 ce         1 759       0.029400
      7 CCF         15.8770   -27.9590   -12.4090 ca         1 759      -0.024800
      8 CAU         16.9590   -28.7910   -12.7580 ca         1 759      -0.095000
      9 CAQ         17.9560   -28.3320   -13.6360 ca         1 759      -0.093500
     10 CAT         15.8270   -26.6500   -12.9270 ca         1 759      -0.095000
     11 CAP         16.8260   -26.1880   -13.8000 ca         1 759      -0.093500
     12 CCA         17.8930   -27.0290   -14.1680 ca         1 759      -0.078300
     13 CBC         18.9610   -26.5360   -15.1350 c3         1 759       0.154300
     14 NBM         20.2620   -26.4340   -14.4840 ns         1 759      -0.500900
     15 C           21.2380   -25.5180   -14.8130 c          1 759       0.606100
     16 O           21.1070   -24.6770   -15.6940 o          1 759      -0.595100
     17 CA          22.4540   -25.7220   -13.8600 c5         1 759       0.028700
     18 CB          22.2710   -24.7790   -12.6370 c5         1 759      -0.081400
     19 CG          23.6770   -24.7930   -11.9940 c5         1 759       0.154300
     20 OD1         23.8820   -25.9860   -11.2340 oh         1 759      -0.650000
     21 CD2         24.6080   -24.7120   -13.2450 c5         1 759       0.071000
     22 N           23.7760   -25.2540   -14.3520 n          1 759      -0.379800
     23 CBW         24.3320   -25.7180   -15.5680 c          1 759       0.598100
     24 OAK         23.7420   -26.5670   -16.2300 o          1 759      -0.634100
     25 CCN         25.6860   -25.1090   -16.0690 c3         1 759       0.047700
     26 CCQ         25.5300   -23.7910   -16.9210 c3         1 759      -0.042000
     27 CAF         26.9320   -23.2530   -17.3230 c3         1 759      -0.091100
     28 CAG         24.7130   -24.0570   -18.2160 c3         1 759      -0.091100
     29 CAE         24.8120   -22.6760   -16.1120 c3         1 759      -0.091100
     30 NBN         26.4350   -26.1540   -16.8080 ns         1 759      -0.468900
     31 CBT         27.7390   -26.5300   -16.5660 c          1 759       0.589100
     32 OAH         28.4040   -26.0280   -15.6680 o          1 759      -0.609100
     33 CBD         28.3070   -27.6230   -17.5080 c3         1 759       0.075600
     34 OBQ         27.2870   -28.3280   -18.2650 os         1 759      -0.476000
     35 CBB         26.5180   -29.3000   -17.5240 c3         1 759       0.125600
     36 CBA         25.4640   -29.9520   -18.4550 c3         1 759       0.162600
     37 OBP         24.4160   -29.0050   -18.7570 os         1 759      -0.443000
     38 CAZ         24.6210   -28.1760   -19.9260 c3         1 759       0.156600
     39 CAY         23.5030   -27.1120   -19.9710 c3         1 759       0.153600
     40 OBO         22.2380   -27.7700   -20.2140 os         1 759      -0.450000
     41 CAX         21.0490   -27.0160   -19.8780 c3         1 759       0.141600
     42 CAW         20.9790   -26.7690   -18.3440 c3         1 759       0.067000
     43 NBL         21.4230   -27.9250   -17.5540 ns         1 759      -0.492900
     44 CBU         20.7260   -29.1010   -17.4310 c          1 759       0.605100
     45 OAI         19.5640   -29.2100   -17.7970 o          1 759      -0.629100
     46 CBE         21.5060   -30.2810   -16.8570 c3         1 759      -0.135400
     47 CCL         21.1980   -30.4840   -15.3540 c3         1 759       0.109200
     48 NBH         21.9140   -29.4180   -14.6230 n2         1 759      -0.577900
     49 CCG         21.5340   -31.8870   -14.8290 cc         1 759       0.386800
     50 NBK         21.7400   -32.9760   -15.5640 nd         1 759      -0.340000
     51 NBJ         21.8070   -34.0750   -14.7220 nd         1 759      -0.350000
     52 CCB         21.6020   -33.6670   -13.4780 cc         1 759       0.409800
     53 CAB         21.6520   -34.5530   -12.2640 c3         1 759      -0.128400
     54 NCP         21.5360   -32.2950   -13.5140 na         1 759      -0.254800
     55 CCJ         20.9010   -31.5270   -12.5260 cc         1 759      -0.126200
     56 SBS         19.7870   -32.1000   -11.3050 ss         1 759       0.252000
     57 CCC         19.6860   -30.4510   -10.6870 cc         1 759      -0.203300
     58 CAC         18.8030   -30.1400    -9.5070 c3         1 759      -0.022800
     59 CCD         20.4940   -29.5710   -11.3860 cd         1 759      -0.059300
     60 CAD         20.6100   -28.1020   -11.0510 c3         1 759      -0.030800
     61 CCI         21.2140   -30.1930   -12.4610 cd         1 759      -0.203900
     62 CBX         22.1660   -29.5210   -13.3550 cf         1 759       0.554500
     63 CCE         23.5560   -29.2450   -12.8910 ca         1 759      -0.144900
     64 CAR         23.9200   -29.4370   -11.5370 ca         1 759      -0.072000
     65 CAN         25.2270   -29.1610   -11.0970 ca         1 759      -0.112000
     66 CBY         26.1900   -28.6940   -12.0020 ca         1 759       0.124000
     67 Cl1         27.8190   -28.3340   -11.4470 cl         1 759      -0.195000
     68 CAO         25.8560   -28.5170   -13.3510 ca         1 759      -0.112000
     69 CAS         24.5530   -28.7980   -13.7940 ca         1 759      -0.072000
     70 H1          13.3600   -27.8680   -13.8280 hc         1 759       0.052700
     71 H2          11.7990   -28.2330   -13.0930 hc         1 759       0.052700
     72 H3          12.5810   -26.6770   -12.7720 hc         1 759       0.052700
     73 H4          13.3630   -28.3690    -8.7730 h2         1 759       0.074200
     74 H5          13.1910   -30.1300    -9.0660 h2         1 759       0.074200
     75 H6          17.0190   -29.8000   -12.3600 ha         1 759       0.116000
     76 H7          18.7760   -28.9920   -13.9040 ha         1 759       0.111500
     77 H8          15.0120   -25.9850   -12.6510 ha         1 759       0.116000
     78 H9          16.7660   -25.1760   -14.1940 ha         1 759       0.111500
     79 H10         19.0390   -27.2380   -15.9740 h1         1 759       0.059700
     80 H11         18.6740   -25.5570   -15.5400 h1         1 759       0.059700
     81 H12         20.4780   -27.0960   -13.7510 hn         1 759       0.318500
     82 H13         22.5140   -26.7740   -13.5600 h1         1 759       0.076700
     83 H14         22.0030   -23.7630   -12.9540 hc         1 759       0.073700
     84 H15         21.4870   -25.1190   -11.9510 hc         1 759       0.073700
     85 H16         23.8170   -23.9170   -11.3440 h1         1 759       0.050700
     86 H17         24.7590   -25.9060   -10.8010 ho         1 759       0.450000
     87 H18         24.8900   -23.6720   -13.4410 h1         1 759       0.058200
     88 H19         25.5270   -25.2950   -13.1010 h1         1 759       0.058200
     89 H20         26.2700   -24.8540   -15.1780 h1         1 759       0.078700
     90 H21         26.8490   -22.2970   -17.8540 hc         1 759       0.041256
     91 H22         27.5580   -23.0910   -16.4370 hc         1 759       0.041256
     92 H23         27.4570   -23.9500   -17.9860 hc         1 759       0.041256
     93 H24         24.6250   -23.1420   -18.8160 hc         1 759       0.041256
     94 H25         25.1960   -24.8160   -18.8420 hc         1 759       0.041256
     95 H26         23.6970   -24.3960   -17.9820 hc         1 759       0.041256
     96 H27         24.7190   -21.7610   -16.7090 hc         1 759       0.041256
     97 H28         23.7990   -22.9750   -15.8200 hc         1 759       0.041256
     98 H29         25.3770   -22.4210   -15.2090 hc         1 759       0.041256
     99 H30         25.9540   -26.6730   -17.5360 hn         1 759       0.334500
    100 H31         28.9870   -27.1100   -18.2000 h1         1 759       0.063700
    101 H32         28.9030   -28.3200   -16.9060 h1         1 759       0.063700
    102 H33         27.1790   -30.0860   -17.1360 h1         1 759       0.038200
    103 H34         26.0070   -28.8390   -16.6690 h1         1 759       0.038200
    104 H35         25.9440   -30.3320   -19.3660 h1         1 759       0.053700
    105 H36         25.0350   -30.8120   -17.9240 h1         1 759       0.053700
    106 H37         25.5850   -27.6560   -19.8830 h1         1 759       0.039200
    107 H38         24.5990   -28.7780   -20.8430 h1         1 759       0.039200
    108 H39         23.5090   -26.5780   -19.0140 h1         1 759       0.040200
    109 H40         23.7160   -26.3860   -20.7660 h1         1 759       0.040200
    110 H41         21.0210   -26.0560   -20.4100 h1         1 759       0.050700
    111 H42         20.1600   -27.5870   -20.1770 h1         1 759       0.050700
    112 H43         21.6140   -25.9120   -18.0860 h1         1 759       0.051700
    113 H44         19.9500   -26.5100   -18.0640 h1         1 759       0.051700
    114 H45         22.3680   -27.9050   -17.1790 hn         1 759       0.332500
    115 H46         21.1960   -31.1720   -17.4140 hc         1 759       0.081700
    116 H47         22.5830   -30.1190   -16.9720 hc         1 759       0.081700
    117 H48         20.1150   -30.3680   -15.2190 h1         1 759       0.089700
    118 H49         22.2620   -35.4430   -12.4600 hc         1 759       0.064033
    119 H50         22.0970   -34.0290   -11.4110 hc         1 759       0.064033
    120 H51         20.6480   -34.8900   -11.9860 hc         1 759       0.064033
    121 H52         18.0230   -30.9000    -9.3830 hc         1 759       0.052033
    122 H53         19.3890   -30.1030    -8.5820 hc         1 759       0.052033
    123 H54         18.3060   -29.1710    -9.6310 hc         1 759       0.052033
    124 H55         20.6870   -27.9500    -9.9680 hc         1 759       0.049033
    125 H56         21.4960   -27.6450   -11.5020 hc         1 759       0.049033
    126 H57         19.7310   -27.5500   -11.4030 hc         1 759       0.049033
    127 H58         23.1940   -29.7940   -10.8100 ha         1 759       0.131000
    128 H59         25.4900   -29.3050   -10.0520 ha         1 759       0.142500
    129 H60         26.6070   -28.1620   -14.0520 ha         1 759       0.142500
    130 H61         24.3250   -28.6610   -14.8480 ha         1 759       0.131000
    131 H62         11.7060   -28.5100   -10.6230 hn         1 759       0.449000
@<TRIPOS>BOND
     1     1     2 1   
     2     1    70 1   
     3     1    71 1   
     4     1    72 1   
     5     2     3 1   
     6     2     6 2   
     7     3     4 1   
     8     3   131 1   
     9     4     5 1   
    10     4    73 1   
    11     4    74 1   
    12     5     6 1   
    13     6     7 1   
    14     7     8 ar  
    15     7    10 ar  
    16     8     9 ar  
    17     8    75 1   
    18     9    12 ar  
    19     9    76 1   
    20    10    11 ar  
    21    10    77 1   
    22    11    12 ar  
    23    11    78 1   
    24    12    13 1   
    25    13    14 1   
    26    13    79 1   
    27    13    80 1   
    28    14    15 1   
    29    14    81 1   
    30    15    16 2   
    31    15    17 1   
    32    17    18 1   
    33    17    22 1   
    34    17    82 1   
    35    18    19 1   
    36    18    83 1   
    37    18    84 1   
    38    19    20 1   
    39    19    21 1   
    40    19    85 1   
    41    20    86 1   
    42    21    22 1   
    43    21    87 1   
    44    21    88 1   
    45    22    23 1   
    46    23    24 2   
    47    23    25 1   
    48    25    26 1   
    49    25    30 1   
    50    25    89 1   
    51    26    27 1   
    52    26    28 1   
    53    26    29 1   
    54    27    90 1   
    55    27    91 1   
    56    27    92 1   
    57    28    93 1   
    58    28    94 1   
    59    28    95 1   
    60    29    96 1   
    61    29    97 1   
    62    29    98 1   
    63    30    31 1   
    64    30    99 1   
    65    31    32 2   
    66    31    33 1   
    67    33    34 1   
    68    33   100 1   
    69    33   101 1   
    70    34    35 1   
    71    35    36 1   
    72    35   102 1   
    73    35   103 1   
    74    36    37 1   
    75    36   104 1   
    76    36   105 1   
    77    37    38 1   
    78    38    39 1   
    79    38   106 1   
    80    38   107 1   
    81    39    40 1   
    82    39   108 1   
    83    39   109 1   
    84    40    41 1   
    85    41    42 1   
    86    41   110 1   
    87    41   111 1   
    88    42    43 1   
    89    42   112 1   
    90    42   113 1   
    91    43    44 1   
    92    43   114 1   
    93    44    45 2   
    94    44    46 1   
    95    46    47 1   
    96    46   115 1   
    97    46   116 1   
    98    47    48 1   
    99    47    49 1   
   100    47   117 1   
   101    48    62 2   
   102    49    50 2   
   103    49    54 1   
   104    50    51 1   
   105    51    52 2   
   106    52    53 1   
   107    52    54 1   
   108    53   118 1   
   109    53   119 1   
   110    53   120 1   
   111    54    55 1   
   112    55    56 1   
   113    55    61 2   
   114    56    57 1   
   115    57    58 1   
   116    57    59 2   
   117    58   121 1   
   118    58   122 1   
   119    58   123 1   
   120    59    60 1   
   121    59    61 1   
   122    60   124 1   
   123    60   125 1   
   124    60   126 1   
   125    61    62 1   
   126    62    63 1   
   127    63    64 ar  
   128    63    69 ar  
   129    64    65 ar  
   130    64   127 1   
   131    65    66 ar  
   132    65   128 1   
   133    66    67 1   
   134    66    68 ar  
   135    68    69 ar  
   136    68   129 1   
   137    69   130 1   
@<TRIPOS>SUBSTRUCTURE
     1 759         1 TEMP              0 ****  ****    0 ROOT
