@<TRIPOS>MOLECULE
759
  131   137     1     0     0
SMALL
abcg2


@<TRIPOS>ATOM
      1 CAA         13.6530   -27.0710   -13.9100 c3         1 759      -0.035900
      2 CBZ         14.0030   -26.0480   -12.8860 c2         1 759       0.053800
      3 NBI         12.9280   -25.4060   -12.2380 nu         1 759      -0.764200
      4 CAV         13.3750   -24.7230   -11.0490 c5         1 759       0.317800
      5 SBR         15.1670   -24.3690   -11.2720 ss         1 759      -0.395600
      6 CCH         15.2280   -25.6720   -12.4820 ce         1 759       0.029400
      7 CCF         16.5380   -26.1470   -12.9350 ca         1 759      -0.024800
      8 CAU         17.5560   -26.4200   -12.0170 ca         1 759      -0.095000
      9 CAQ         18.8010   -26.8530   -12.4410 ca         1 759      -0.093500
     10 CAT         16.8220   -26.3040   -14.2930 ca         1 759      -0.095000
     11 CAP         18.0690   -26.7400   -14.7120 ca         1 759      -0.093500
     12 CCA         19.0750   -27.0200   -13.7950 ca         1 759      -0.078300
     13 CBC         20.4200   -27.5110   -14.2640 c3         1 759       0.154300
     14 NBM         21.5300   -26.9280   -13.5520 ns         1 759      -0.500900
     15 C           21.8660   -25.6360   -13.6880 c          1 759       0.606100
     16 O           21.2350   -24.8510   -14.3760 o          1 759      -0.595100
     17 CA          23.0630   -25.2020   -12.8530 c5         1 759       0.028700
     18 CB          22.6480   -24.3940   -11.6230 c5         1 759      -0.081400
     19 CG          23.8490   -23.4960   -11.3760 c5         1 759       0.154300
     20 OD1         24.8460   -24.2700   -10.7520 oh         1 759      -0.650000
     21 CD2         24.2330   -23.0890   -12.7960 c5         1 759       0.071000
     22 N           23.9140   -24.2740   -13.5810 n          1 759      -0.379800
     23 CBW         24.3950   -24.6540   -14.7730 c          1 759       0.598100
     24 OAK         24.1050   -25.7530   -15.2340 o          1 759      -0.634100
     25 CCN         25.3190   -23.7150   -15.5570 c3         1 759       0.047700
     26 CCQ         24.5770   -22.8420   -16.6040 c3         1 759      -0.042000
     27 CAF         25.6140   -21.9470   -17.2890 c3         1 759      -0.091100
     28 CAG         23.8390   -23.6660   -17.6610 c3         1 759      -0.091100
     29 CAE         23.5600   -21.9480   -15.8920 c3         1 759      -0.091100
     30 NBN         26.3340   -24.5350   -16.1780 ns         1 759      -0.468900
     31 CBT         27.2280   -25.2020   -15.4280 c          1 759       0.589100
     32 OAH         27.4220   -24.9620   -14.2460 o          1 759      -0.609100
     33 CBD         28.0270   -26.2820   -16.1370 c3         1 759       0.075600
     34 OBQ         27.3700   -26.7410   -17.2890 os         1 759      -0.476000
     35 CBB         27.4220   -28.1420   -17.4760 c3         1 759       0.125600
     36 CBA         26.4840   -28.5850   -18.5800 c3         1 759       0.162600
     37 OBP         25.1190   -28.5890   -18.2420 os         1 759      -0.443000
     38 CAZ         24.4830   -27.3340   -18.3170 c3         1 759       0.156600
     39 CAY         22.9900   -27.4870   -18.1830 c3         1 759       0.153600
     40 OBO         22.4560   -28.1830   -19.2850 os         1 759      -0.450000
     41 CAX         21.0910   -27.9420   -19.5130 c3         1 759       0.141600
     42 CAW         20.1700   -28.4280   -18.4070 c3         1 759       0.067000
     43 NBL         20.3620   -29.8380   -18.1510 ns         1 759      -0.492900
     44 CBU         19.7220   -30.4940   -17.1750 c          1 759       0.605100
     45 OAI         18.9330   -29.9500   -16.4120 o          1 759      -0.629100
     46 CBE         20.0170   -31.9770   -17.0820 c3         1 759      -0.135400
     47 CCL         20.3950   -32.3450   -15.6560 c3         1 759       0.109200
     48 NBH         21.5880   -31.6030   -15.2830 n2         1 759      -0.577900
     49 CCG         20.7000   -33.7980   -15.5280 cc         1 759       0.386800
     50 NBK         20.8210   -34.7060   -16.4410 nd         1 759      -0.340000
     51 NBJ         21.1660   -35.8700   -15.8280 nd         1 759      -0.350000
     52 CCB         21.2590   -35.6550   -14.5490 cc         1 759       0.409800
     53 CAB         21.6340   -36.6520   -13.5210 c3         1 759      -0.128400
     54 NCP         20.9690   -34.3410   -14.3010 na         1 759      -0.254800
     55 CCJ         20.9200   -33.6210   -13.1140 cc         1 759      -0.126200
     56 SBS         20.2440   -34.2560   -11.6750 ss         1 759       0.252000
     57 CCC         20.4820   -32.7620   -10.8480 cc         1 759      -0.203300
     58 CAC         20.0910   -32.6390    -9.4130 c3         1 759      -0.022800
     59 CCD         21.0500   -31.8170   -11.6520 cd         1 759      -0.059300
     60 CAD         21.3170   -30.4160   -11.2010 c3         1 759      -0.030800
     61 CCI         21.3180   -32.3170   -12.9700 cd         1 759      -0.203900
     62 CBX         21.9700   -31.5800   -14.0690 cf         1 759       0.554500
     63 CCE         23.1990   -30.8100   -13.7660 ca         1 759      -0.144900
     64 CAR         24.0720   -31.2160   -12.7600 ca         1 759      -0.072000
     65 CAN         25.2540   -30.5290   -12.5260 ca         1 759      -0.112000
     66 CBY         25.5540   -29.4210   -13.3030 ca         1 759       0.124000
     67 CL1         27.0210   -28.5520   -13.0090 cl         1 759      -0.195000
     68 CAO         24.6980   -28.9940   -14.3070 ca         1 759      -0.112000
     69 CAS         23.5300   -29.6980   -14.5380 ca         1 759      -0.072000
     70 H1          14.5190   -27.6490   -14.2260 hc         1 759       0.052700
     71 H2          12.9050   -27.7590   -13.5150 hc         1 759       0.052700
     72 H3          13.2240   -26.6040   -14.8000 hc         1 759       0.052700
     73 H4          12.8230   -23.8020   -10.8810 h2         1 759       0.074200
     74 H5          13.2690   -25.3660   -10.1740 h2         1 759       0.074200
     75 H6          17.3670   -26.2990   -10.9580 ha         1 759       0.116000
     76 H7          19.5700   -27.0560   -11.7040 ha         1 759       0.111500
     77 H8          16.0720   -26.0520   -15.0320 ha         1 759       0.116000
     78 H9          18.2670   -26.8410   -15.7730 ha         1 759       0.111500
     79 H10         20.4850   -28.5920   -14.1280 h1         1 759       0.059700
     80 H11         20.5240   -27.3300   -15.3360 h1         1 759       0.059700
     81 H12         22.1280   -27.5360   -13.0160 hn         1 759       0.318500
     82 H13         23.6450   -26.0800   -12.5520 h1         1 759       0.076700
     83 H14         21.7790   -23.7730   -11.8490 hc         1 759       0.073700
     84 H15         22.4020   -25.0260   -10.7700 hc         1 759       0.073700
     85 H16         23.5880   -22.6140   -10.7790 h1         1 759       0.050700
     86 H17         25.6430   -23.7360   -10.6680 ho         1 759       0.450000
     87 H18         23.6350   -22.2310   -13.1090 h1         1 759       0.058200
     88 H19         25.2850   -22.8140   -12.8750 h1         1 759       0.058200
     89 H20         25.8150   -23.0220   -14.8740 h1         1 759       0.078700
     90 H21         25.1160   -21.2590   -17.9740 hc         1 759       0.041256
     91 H22         26.1660   -21.3500   -16.5610 hc         1 759       0.041256
     92 H23         26.3360   -22.5220   -17.8700 hc         1 759       0.041256
     93 H24         23.3630   -22.9890   -18.3720 hc         1 759       0.041256
     94 H25         24.5010   -24.3110   -18.2410 hc         1 759       0.041256
     95 H26         23.0560   -24.2850   -17.2250 hc         1 759       0.041256
     96 H27         23.0840   -21.2850   -16.6160 hc         1 759       0.041256
     97 H28         22.7670   -22.5240   -15.4110 hc         1 759       0.041256
     98 H29         24.0370   -21.3190   -15.1390 hc         1 759       0.041256
     99 H30         26.1540   -24.8960   -17.1010 hn         1 759       0.334500
    100 H31         29.0210   -25.8820   -16.3800 h1         1 759       0.063700
    101 H32         28.1800   -27.0830   -15.4070 h1         1 759       0.063700
    102 H33         28.4370   -28.4570   -17.7500 h1         1 759       0.038200
    103 H34         27.1610   -28.6640   -16.5450 h1         1 759       0.038200
    104 H35         26.6680   -27.9900   -19.4850 h1         1 759       0.053700
    105 H36         26.7470   -29.6180   -18.8210 h1         1 759       0.053700
    106 H37         24.8030   -26.6740   -17.5100 h1         1 759       0.039200
    107 H38         24.7200   -26.8340   -19.2670 h1         1 759       0.039200
    108 H39         22.7460   -27.9880   -17.2360 h1         1 759       0.040200
    109 H40         22.5700   -26.4740   -18.1180 h1         1 759       0.040200
    110 H41         20.8970   -26.8700   -19.6590 h1         1 759       0.050700
    111 H42         20.8420   -28.4480   -20.4490 h1         1 759       0.050700
    112 H43         20.3330   -27.8560   -17.4900 h1         1 759       0.051700
    113 H44         19.1400   -28.2280   -18.7180 h1         1 759       0.051700
    114 H45         21.0230   -30.3410   -18.7210 hn         1 759       0.332500
    115 H46         19.1160   -32.5200   -17.3770 hc         1 759       0.081700
    116 H47         20.8130   -32.2730   -17.7650 hc         1 759       0.081700
    117 H48         19.5600   -32.1080   -14.9830 h1         1 759       0.089700
    118 H49         21.9630   -37.5620   -14.0160 hc         1 759       0.064033
    119 H50         22.4470   -36.2880   -12.8910 hc         1 759       0.064033
    120 H51         20.7950   -36.9070   -12.8730 hc         1 759       0.064033
    121 H52         19.4500   -33.4580    -9.0920 hc         1 759       0.052033
    122 H53         20.9700   -32.6320    -8.7650 hc         1 759       0.052033
    123 H54         19.5480   -31.7100    -9.2410 hc         1 759       0.052033
    124 H55         22.3200   -30.3030   -10.7870 hc         1 759       0.049033
    125 H56         21.2230   -29.7070   -12.0230 hc         1 759       0.049033
    126 H57         20.6110   -30.1130   -10.4290 hc         1 759       0.049033
    127 H58         23.8480   -32.0860   -12.1570 ha         1 759       0.131000
    128 H59         25.9300   -30.8580   -11.7490 ha         1 759       0.142500
    129 H60         24.9330   -28.1200   -14.8990 ha         1 759       0.142500
    130 H61         22.8620   -29.3740   -15.3240 ha         1 759       0.131000
    131 H62         12.3900   -24.8210   -12.8680 hn         1 759       0.449000
@<TRIPOS>BOND
     1     1     2 1   
     2     1    70 1   
     3     1    71 1   
     4     1    72 1   
     5     2     3 1   
     6     2     6 2   
     7     3     4 1   
     8     3   131 1   
     9     4     5 1   
    10     4    73 1   
    11     4    74 1   
    12     5     6 1   
    13     6     7 1   
    14     7     8 ar  
    15     7    10 ar  
    16     8     9 ar  
    17     8    75 1   
    18     9    12 ar  
    19     9    76 1   
    20    10    11 ar  
    21    10    77 1   
    22    11    12 ar  
    23    11    78 1   
    24    12    13 1   
    25    13    14 1   
    26    13    79 1   
    27    13    80 1   
    28    14    15 1   
    29    14    81 1   
    30    15    16 2   
    31    15    17 1   
    32    17    18 1   
    33    17    22 1   
    34    17    82 1   
    35    18    19 1   
    36    18    83 1   
    37    18    84 1   
    38    19    20 1   
    39    19    21 1   
    40    19    85 1   
    41    20    86 1   
    42    21    22 1   
    43    21    87 1   
    44    21    88 1   
    45    22    23 1   
    46    23    24 2   
    47    23    25 1   
    48    25    26 1   
    49    25    30 1   
    50    25    89 1   
    51    26    27 1   
    52    26    28 1   
    53    26    29 1   
    54    27    90 1   
    55    27    91 1   
    56    27    92 1   
    57    28    93 1   
    58    28    94 1   
    59    28    95 1   
    60    29    96 1   
    61    29    97 1   
    62    29    98 1   
    63    30    31 1   
    64    30    99 1   
    65    31    32 2   
    66    31    33 1   
    67    33    34 1   
    68    33   100 1   
    69    33   101 1   
    70    34    35 1   
    71    35    36 1   
    72    35   102 1   
    73    35   103 1   
    74    36    37 1   
    75    36   104 1   
    76    36   105 1   
    77    37    38 1   
    78    38    39 1   
    79    38   106 1   
    80    38   107 1   
    81    39    40 1   
    82    39   108 1   
    83    39   109 1   
    84    40    41 1   
    85    41    42 1   
    86    41   110 1   
    87    41   111 1   
    88    42    43 1   
    89    42   112 1   
    90    42   113 1   
    91    43    44 1   
    92    43   114 1   
    93    44    45 2   
    94    44    46 1   
    95    46    47 1   
    96    46   115 1   
    97    46   116 1   
    98    47    48 1   
    99    47    49 1   
   100    47   117 1   
   101    48    62 2   
   102    49    50 2   
   103    49    54 1   
   104    50    51 1   
   105    51    52 2   
   106    52    53 1   
   107    52    54 1   
   108    53   118 1   
   109    53   119 1   
   110    53   120 1   
   111    54    55 1   
   112    55    56 1   
   113    55    61 2   
   114    56    57 1   
   115    57    58 1   
   116    57    59 2   
   117    58   121 1   
   118    58   122 1   
   119    58   123 1   
   120    59    60 1   
   121    59    61 1   
   122    60   124 1   
   123    60   125 1   
   124    60   126 1   
   125    61    62 1   
   126    62    63 1   
   127    63    64 ar  
   128    63    69 ar  
   129    64    65 ar  
   130    64   127 1   
   131    65    66 ar  
   132    65   128 1   
   133    66    67 1   
   134    66    68 ar  
   135    68    69 ar  
   136    68   129 1   
   137    69   130 1   
@<TRIPOS>SUBSTRUCTURE
     1 759         1 TEMP              0 ****  ****    0 ROOT
