@<TRIPOS>MOLECULE
75A
   65    66     1     0     0
SMALL
abcg2


@<TRIPOS>ATOM
      1 C23         -3.4390    -2.2670    -2.9670 c          1 75A       0.617100
      2 O7          -3.6060    -3.3510    -2.4250 o          1 75A      -0.612100
      3 C24         -4.1320    -1.9010    -4.2550 c3         1 75A      -0.174100
      4 N1          -2.6260    -1.3250    -2.4620 ns         1 75A      -0.476900
      5 C9          -1.8850    -1.4980    -1.2440 c3         1 75A       0.054700
      6 C10         -0.8800    -2.6490    -1.4010 c          1 75A       0.599100
      7 O4          -0.5290    -3.0440    -2.4990 o          1 75A      -0.617100
      8 C8          -2.7900    -1.6010     0.0040 c3         1 75A      -0.023100
      9 C5          -3.8150    -0.5030     0.0270 ca         1 75A      -0.152300
     10 C6          -3.4820     0.7750     0.4670 ca         1 75A      -0.129500
     11 C4          -5.1120    -0.7200    -0.4270 ca         1 75A      -0.129500
     12 C7          -4.4070     1.8070     0.4410 ca         1 75A      -0.078000
     13 C3          -6.0420     0.3090    -0.4550 ca         1 75A      -0.078000
     14 C2          -5.6960     1.5910    -0.0380 ca         1 75A      -0.034300
     15 C1          -6.7110     2.6870    -0.0520 c3         1 75A      -0.046700
     16 F1          -6.0550     3.8950    -0.2100 f          1 75A      -0.159500
     17 F2          -7.4760     2.5610    -1.1990 f          1 75A      -0.159500
     18 P1          -7.8200     2.7430     1.4720 p5         1 75A       1.260500
     19 O2          -8.7040     3.9660     1.2360 o          1 75A      -0.899167
     20 O1          -8.5460     1.4030     1.4090 o          1 75A      -0.899167
     21 O3          -6.8130     2.8870     2.6080 o          1 75A      -0.899167
     22 N2          -0.3520    -3.1210    -0.2580 ns         1 75A      -0.495900
     23 N4           4.2380    -1.6520     1.9670 ns         1 75A      -0.497900
     24 C11          0.5790    -4.2180    -0.2340 c3         1 75A       0.032700
     25 C12         -0.1700    -5.5520    -0.1730 c          1 75A       0.586100
     26 C13          1.5220    -4.1040     0.9670 c3         1 75A      -0.082400
     27 C14          2.4110    -2.8710     0.8910 c3         1 75A      -0.095400
     28 C15          3.4080    -2.8350     2.0410 c3         1 75A       0.097000
     29 C16          5.5560    -1.6380     2.2160 c          1 75A       0.613700
     30 C17          6.2430    -0.3200     2.0240 ca         1 75A      -0.149600
     31 C18          7.3750    -0.0470     2.7860 ca         1 75A      -0.047000
     32 C19          8.0510     1.1510     2.6240 ca         1 75A      -0.127000
     33 C20          7.6230     2.0830     1.6870 ca         1 75A      -0.066000
     34 C21          6.5080     1.7930     0.9150 ca         1 75A       0.185000
     35 C22          5.8120     0.6040     1.0740 ca         1 75A      -0.055000
     36 O5          -1.2510    -5.6520     0.3830 o          1 75A      -0.575100
     37 O6           6.1900    -2.6220     2.5730 o          1 75A      -0.611100
     38 I            5.8630     3.1780    -0.5310 i          1 75A      -0.301000
     39 N3           0.4800    -6.5800    -0.7330 nt         1 75A      -0.613000
     40 H24         -5.2050    -2.0530    -4.1440 hc         1 75A       0.054033
     41 H25         -3.9580    -0.8730    -4.5680 hc         1 75A       0.054033
     42 H26         -3.7900    -2.5640    -5.0510 hc         1 75A       0.054033
     43 H1          -2.5410    -0.4450    -2.9390 hn         1 75A       0.321500
     44 H12         -1.2780    -0.5950    -1.1340 h1         1 75A       0.059700
     45 H10         -3.2750    -2.5760     0.0330 hc         1 75A       0.049200
     46 H11         -2.1730    -1.5170     0.9010 hc         1 75A       0.049200
     47 H8          -2.4820     0.9710     0.8380 ha         1 75A       0.077500
     48 H7          -5.4020    -1.7080    -0.7620 ha         1 75A       0.077500
     49 H9          -4.1110     2.7850     0.7950 ha         1 75A       0.133500
     50 H6          -7.0440     0.1030    -0.8050 ha         1 75A       0.133500
     51 H2          -0.7310    -2.8230     0.6250 hn         1 75A       0.333500
     52 H5           3.7630    -0.7740     1.8260 hn         1 75A       0.320500
     53 H13          1.1790    -4.1750    -1.1460 h1         1 75A       0.077700
     54 H14          0.9410    -4.1010     1.8940 hc         1 75A       0.051200
     55 H15          2.1460    -5.0010     0.9950 hc         1 75A       0.051200
     56 H16          2.9570    -2.8680    -0.0570 hc         1 75A       0.053700
     57 H17          1.7990    -1.9650     0.9090 hc         1 75A       0.053700
     58 H18          4.0550    -3.7100     2.0020 h1         1 75A       0.055200
     59 H19          2.8800    -2.8670     2.9990 h1         1 75A       0.055200
     60 H20          7.7250    -0.7670     3.5130 ha         1 75A       0.135000
     61 H21          8.9220     1.3680     3.2280 ha         1 75A       0.116000
     62 H22          8.1600     3.0140     1.5690 ha         1 75A       0.125000
     63 H23          4.9590     0.3880     0.4440 ha         1 75A       0.133000
     64 H3           1.3550    -6.4580    -1.2140 hn         1 75A       0.307500
     65 H4           0.1020    -7.5120    -0.6910 hn         1 75A       0.307500
@<TRIPOS>BOND
     1     1     2 2   
     2     1     3 1   
     3     1     4 1   
     4     3    40 1   
     5     3    41 1   
     6     3    42 1   
     7     4     5 1   
     8     4    43 1   
     9     5     6 1   
    10     5     8 1   
    11     5    44 1   
    12     6     7 2   
    13     6    22 1   
    14     8     9 1   
    15     8    45 1   
    16     8    46 1   
    17     9    10 ar  
    18     9    11 ar  
    19    10    12 ar  
    20    10    47 1   
    21    11    13 ar  
    22    11    48 1   
    23    12    14 ar  
    24    12    49 1   
    25    13    14 ar  
    26    13    50 1   
    27    14    15 1   
    28    15    16 1   
    29    15    17 1   
    30    15    18 1   
    31    18    19 1   
    32    18    20 1   
    33    18    21 1   
    34    22    24 1   
    35    22    51 1   
    36    23    28 1   
    37    23    29 1   
    38    23    52 1   
    39    24    25 1   
    40    24    26 1   
    41    24    53 1   
    42    25    36 2   
    43    25    39 1   
    44    26    27 1   
    45    26    54 1   
    46    26    55 1   
    47    27    28 1   
    48    27    56 1   
    49    27    57 1   
    50    28    58 1   
    51    28    59 1   
    52    29    30 1   
    53    29    37 2   
    54    30    31 ar  
    55    30    35 ar  
    56    31    32 ar  
    57    31    60 1   
    58    32    33 ar  
    59    32    61 1   
    60    33    34 ar  
    61    33    62 1   
    62    34    35 ar  
    63    34    38 1   
    64    35    63 1   
    65    39    64 1   
    66    39    65 1   
@<TRIPOS>SUBSTRUCTURE
     1 75A         1 TEMP              0 ****  ****    0 ROOT
