@<TRIPOS>MOLECULE
75A
   65    66     1     0     0
SMALL
No Charge or Current Charge


@<TRIPOS>ATOM
      1 C23         -2.2230    -0.8360    -2.9740 c          1 75A       0.617100
      2 O7          -2.6340    -1.9510    -3.2610 o          1 75A      -0.612100
      3 C24         -2.1950     0.3050    -3.9850 c3         1 75A      -0.174100
      4 N1          -1.7450    -0.5030    -1.7250 ns         1 75A      -0.476900
      5 C9          -1.7220    -1.4000    -0.5420 c3         1 75A       0.054700
      6 C10         -0.6650    -2.5430    -0.6960 c          1 75A       0.599100
      7 O4           0.1430    -2.5940    -1.6170 o          1 75A      -0.617100
      8 C8          -3.1390    -1.8970    -0.1310 c3         1 75A      -0.023100
      9 C5          -4.1690    -0.7710    -0.0650 ca         1 75A      -0.152300
     10 C6          -4.0820     0.2100     0.9390 ca         1 75A      -0.129500
     11 C4          -5.2110    -0.6970    -1.0070 ca         1 75A      -0.129500
     12 C7          -5.0210     1.2550     0.9970 ca         1 75A      -0.078000
     13 C3          -6.1500     0.3480    -0.9510 ca         1 75A      -0.078000
     14 C2          -6.0630     1.3410     0.0480 ca         1 75A      -0.034300
     15 C1          -7.0830     2.4870     0.1070 c3         1 75A      -0.046700
     16 F1          -6.5110     3.6220     0.5880 f          1 75A      -0.159500
     17 F2          -7.5230     2.8090    -1.1390 f          1 75A      -0.159500
     18 P1          -8.5910     2.0760     1.1840 p5         1 75A       1.260500
     19 O2          -9.5370     3.2350     1.1910 o          1 75A      -0.899167
     20 O1          -9.2940     0.8760     0.6360 o          1 75A      -0.899167
     21 O3          -8.1520     1.7960     2.5850 o          1 75A      -0.899167
     22 N2          -0.6840    -3.5080     0.2930 ns         1 75A      -0.495900
     23 N4           4.3740    -1.8930     1.3120 ns         1 75A      -0.497900
     24 C11          0.2170    -4.6830     0.3650 c3         1 75A       0.032700
     25 C12         -0.5820    -5.9470     0.8110 c          1 75A       0.586100
     26 C13          1.4450    -4.4150     1.2820 c3         1 75A      -0.082400
     27 C14          2.3220    -3.2150     0.8530 c3         1 75A      -0.095400
     28 C15          3.5680    -3.0370     1.7410 c3         1 75A       0.097000
     29 C16          5.5350    -1.4840     1.9320 c          1 75A       0.613700
     30 C17          6.2340    -0.2740     1.3470 ca         1 75A      -0.149600
     31 C18          7.4320     0.1880     1.9420 ca         1 75A      -0.047000
     32 C19          8.1070     1.3090     1.4250 ca         1 75A      -0.127000
     33 C20          7.5960     1.9850     0.3060 ca         1 75A      -0.066000
     34 C21          6.4100     1.5390    -0.2940 ca         1 75A       0.185000
     35 C22          5.7310     0.4200     0.2170 ca         1 75A      -0.055000
     36 O5          -1.7550    -5.9220     1.1530 o          1 75A      -0.575100
     37 O6           5.9700    -2.0790     2.9090 o          1 75A      -0.611100
     38 I            5.6190     2.5810    -2.0200 i          1 75A      -0.301000
     39 N3           0.0920    -7.1220     0.8170 nt         1 75A      -0.613000
     40 H24         -2.5720     0.0070    -4.9700 hc         1 75A       0.054033
     41 H25         -2.7550     1.1540    -3.5780 hc         1 75A       0.054033
     42 H26         -1.1760     0.7050    -4.0450 hc         1 75A       0.054033
     43 H1          -1.4270     0.4510    -1.6090 hn         1 75A       0.321500
     44 H12         -1.3560    -0.7920     0.2950 h1         1 75A       0.059700
     45 H10         -3.4680    -2.6750    -0.8310 hc         1 75A       0.049200
     46 H11         -3.0850    -2.3830     0.8500 hc         1 75A       0.049200
     47 H8          -3.2860     0.1660     1.6780 ha         1 75A       0.077500
     48 H7          -5.2960    -1.4480    -1.7890 ha         1 75A       0.077500
     49 H9          -4.9370     2.0000     1.7850 ha         1 75A       0.133500
     50 H6          -6.9490     0.3820    -1.6880 ha         1 75A       0.133500
     51 H2          -1.3980    -3.4160     1.0070 hn         1 75A       0.333500
     52 H5           4.0660    -1.3620     0.5090 hn         1 75A       0.320500
     53 H13          0.5870    -4.9050    -0.6440 h1         1 75A       0.077700
     54 H14          1.0930    -4.2520     2.3090 hc         1 75A       0.051200
     55 H15          2.0770    -5.3110     1.3070 hc         1 75A       0.051200
     56 H16          2.6400    -3.3530    -0.1880 hc         1 75A       0.053700
     57 H17          1.7300    -2.2930     0.8930 hc         1 75A       0.053700
     58 H18          4.1870    -3.9430     1.6960 h1         1 75A       0.055200
     59 H19          3.2590    -2.8820     2.7840 h1         1 75A       0.055200
     60 H20          7.8460    -0.3210     2.8100 ha         1 75A       0.135000
     61 H21          9.0270     1.6520     1.8940 ha         1 75A       0.116000
     62 H22          8.1160     2.8510    -0.0960 ha         1 75A       0.125000
     63 H23          4.8160     0.1110    -0.2800 ha         1 75A       0.133000
     64 H3           1.0600    -7.1550     0.5330 hn         1 75A       0.307500
     65 H4          -0.3880    -7.9630     1.1010 hn         1 75A       0.307500
@<TRIPOS>BOND
     1     1     2 2   
     2     1     3 1   
     3     1     4 1   
     4     3    40 1   
     5     3    41 1   
     6     3    42 1   
     7     4     5 1   
     8     4    43 1   
     9     5     6 1   
    10     5     8 1   
    11     5    44 1   
    12     6     7 2   
    13     6    22 1   
    14     8     9 1   
    15     8    45 1   
    16     8    46 1   
    17     9    10 ar  
    18     9    11 ar  
    19    10    12 ar  
    20    10    47 1   
    21    11    13 ar  
    22    11    48 1   
    23    12    14 ar  
    24    12    49 1   
    25    13    14 ar  
    26    13    50 1   
    27    14    15 1   
    28    15    16 1   
    29    15    17 1   
    30    15    18 1   
    31    18    19 1   
    32    18    20 1   
    33    18    21 1   
    34    22    24 1   
    35    22    51 1   
    36    23    28 1   
    37    23    29 1   
    38    23    52 1   
    39    24    25 1   
    40    24    26 1   
    41    24    53 1   
    42    25    36 2   
    43    25    39 1   
    44    26    27 1   
    45    26    54 1   
    46    26    55 1   
    47    27    28 1   
    48    27    56 1   
    49    27    57 1   
    50    28    58 1   
    51    28    59 1   
    52    29    30 1   
    53    29    37 2   
    54    30    31 ar  
    55    30    35 ar  
    56    31    32 ar  
    57    31    60 1   
    58    32    33 ar  
    59    32    61 1   
    60    33    34 ar  
    61    33    62 1   
    62    34    35 ar  
    63    34    38 1   
    64    35    63 1   
    65    39    64 1   
    66    39    65 1   
@<TRIPOS>SUBSTRUCTURE
     1 75A         1 TEMP              0 ****  ****    0 ROOT
