@<TRIPOS>MOLECULE
75D
   42    42     1     0     0
SMALL
bcc


@<TRIPOS>ATOM
      1 OAI         -2.9660    -0.7370    -0.8800 o          1 75D      -0.691200
      2 SAS         -2.4030    -0.3330     0.4220 s6         1 75D       1.246100
      3 OAG         -3.0190     0.8920     0.9640 o          1 75D      -0.691200
      4 OAH         -2.4090    -1.4090     1.4310 o          1 75D      -0.691200
      5 CAO         -0.6470     0.0090     0.1110 ca         1 75D      -0.197500
      6 CAM         -0.1440     1.3170     0.0180 ca         1 75D       0.011700
      7 CAQ         -0.9770     2.5800    -0.1410 c3         1 75D      -0.022900
      8 CAD         -0.9460     3.4230     1.1330 c3         1 75D      -0.076100
      9 CAC         -0.5180     3.4010    -1.3490 c3         1 75D      -0.076100
     10 CAJ          1.2410     1.4930     0.0240 ca         1 75D      -0.160000
     11 CAL          2.1310     0.4340     0.0550 ca         1 75D      -0.077300
     12 CAP          3.6220     0.6660     0.1080 c3         1 75D      -0.010400
     13 CAB          4.2100     0.1380     1.4170 c3         1 75D      -0.080100
     14 CAA          4.3360     0.0580    -1.0990 c3         1 75D      -0.080100
     15 CAK          1.5990    -0.8480     0.0080 ca         1 75D      -0.160000
     16 CAN          0.2310    -1.0910     0.0150 ca         1 75D       0.011700
     17 CAR         -0.1930    -2.5440    -0.1460 c3         1 75D      -0.022900
     18 CAF          0.3840    -3.1310    -1.4370 c3         1 75D      -0.076100
     19 CAE          0.2060    -3.3830     1.0660 c3         1 75D      -0.076100
     20 H1          -2.0100     2.3070    -0.3270 hc         1 75D       0.096200
     21 H2           0.0690     3.7480     1.3710 hc         1 75D       0.025283
     22 H3          -1.5610     4.3180     1.0180 hc         1 75D       0.025283
     23 H4          -1.3300     2.8600     1.9820 hc         1 75D       0.025283
     24 H5          -0.5090     2.8010    -2.2600 hc         1 75D       0.025283
     25 H6          -1.2040     4.2350    -1.5060 hc         1 75D       0.025283
     26 H7           0.4800     3.8240    -1.2210 hc         1 75D       0.025283
     27 H8           1.6370     2.5020    -0.0020 ha         1 75D       0.108000
     28 H9           3.7840     1.7490     0.0820 hc         1 75D       0.038700
     29 H10          4.0870    -0.9440     1.5000 hc         1 75D       0.027867
     30 H11          5.2790     0.3520     1.4750 hc         1 75D       0.027867
     31 H12          3.7280     0.5950     2.2820 hc         1 75D       0.027867
     32 H13          3.9380     0.4490    -2.0360 hc         1 75D       0.027867
     33 H14          5.4030     0.2820    -1.0660 hc         1 75D       0.027867
     34 H15          4.2310    -1.0280    -1.1200 hc         1 75D       0.027867
     35 H16          2.2740    -1.6950    -0.0350 ha         1 75D       0.108000
     36 H17         -1.2710    -2.6090    -0.2430 hc         1 75D       0.096200
     37 H18          1.4740    -3.1760    -1.4280 hc         1 75D       0.025283
     38 H19          0.0180    -4.1490    -1.5770 hc         1 75D       0.025283
     39 H20          0.0800    -2.5460    -2.3060 hc         1 75D       0.025283
     40 H21          1.2900    -3.4060     1.2020 hc         1 75D       0.025283
     41 H22         -0.2410    -2.9880     1.9770 hc         1 75D       0.025283
     42 H23         -0.1310    -4.4140     0.9440 hc         1 75D       0.025283
@<TRIPOS>BOND
     1     1     2 1   
     2     2     3 1   
     3     2     4 1   
     4     2     5 1   
     5     5     6 ar  
     6     5    16 ar  
     7     6     7 1   
     8     6    10 ar  
     9     7     8 1   
    10     7     9 1   
    11     7    20 1   
    12     8    21 1   
    13     8    22 1   
    14     8    23 1   
    15     9    24 1   
    16     9    25 1   
    17     9    26 1   
    18    10    11 ar  
    19    10    27 1   
    20    11    12 1   
    21    11    15 ar  
    22    12    13 1   
    23    12    14 1   
    24    12    28 1   
    25    13    29 1   
    26    13    30 1   
    27    13    31 1   
    28    14    32 1   
    29    14    33 1   
    30    14    34 1   
    31    15    16 ar  
    32    15    35 1   
    33    16    17 1   
    34    17    18 1   
    35    17    19 1   
    36    17    36 1   
    37    18    37 1   
    38    18    38 1   
    39    18    39 1   
    40    19    40 1   
    41    19    41 1   
    42    19    42 1   
@<TRIPOS>SUBSTRUCTURE
     1 75D         1 TEMP              0 ****  ****    0 ROOT
