@<TRIPOS>MOLECULE
75D
   42    42     1     0     0
SMALL
No Charge or Current Charge


@<TRIPOS>ATOM
      1 OAI         -3.0270    -0.3780    -0.9250 o          1 75D      -0.691200
      2 SAS         -2.5370    -0.3010     0.4600 s6         1 75D       1.246100
      3 OAG         -2.9680     0.8790     1.2200 o          1 75D      -0.691200
      4 OAH         -2.5880    -1.5560     1.2220 o          1 75D      -0.691200
      5 CAO         -0.6840    -0.0130     0.1730 ca         1 75D      -0.197500
      6 CAM         -0.1430     1.3170     0.0550 ca         1 75D       0.011700
      7 CAQ         -0.9860     2.6000    -0.1500 c3         1 75D      -0.022900
      8 CAD         -0.9840     3.4900     1.1160 c3         1 75D      -0.076100
      9 CAC         -0.5370     3.4070    -1.3950 c3         1 75D      -0.076100
     10 CAJ          1.2560     1.5030     0.0690 ca         1 75D      -0.142000
     11 CAL          2.1450     0.4280     0.1130 ca         1 75D      -0.077300
     12 CAP          3.6570     0.6720     0.1320 c3         1 75D      -0.010400
     13 CAB          4.3220     0.0420     1.3760 c3         1 75D      -0.080100
     14 CAA          4.3220     0.1910    -1.1770 c3         1 75D      -0.080100
     15 CAK          1.6250    -0.8670     0.0710 ca         1 75D      -0.142000
     16 CAN          0.2350    -1.1150     0.0560 ca         1 75D       0.011700
     17 CAR         -0.1770    -2.5940    -0.1460 c3         1 75D      -0.022900
     18 CAF          0.4970    -3.2280    -1.3910 c3         1 75D      -0.076100
     19 CAE          0.0970    -3.4400     1.1210 c3         1 75D      -0.076100
     20 H1          -2.0230     2.3510    -0.3840 hc         1 75D       0.096200
     21 H2           0.0220     3.8710     1.3280 hc         1 75D       0.025283
     22 H3          -1.6530     4.3490     0.9860 hc         1 75D       0.025283
     23 H4          -1.3220     2.9250     1.9920 hc         1 75D       0.025283
     24 H5          -0.4920     2.7570    -2.2780 hc         1 75D       0.025283
     25 H6          -1.2520     4.2120    -1.6060 hc         1 75D       0.025283
     26 H7           0.4470     3.8680    -1.2550 hc         1 75D       0.025283
     27 H8           1.6660     2.5090     0.0390 ha         1 75D       0.090000
     28 H9           3.8400     1.7520     0.1970 hc         1 75D       0.038700
     29 H10          4.2380    -1.0520     1.3610 hc         1 75D       0.027867
     30 H11          5.3860     0.3010     1.4180 hc         1 75D       0.027867
     31 H12          3.8460     0.4100     2.2930 hc         1 75D       0.027867
     32 H13          3.8540     0.6730    -2.0440 hc         1 75D       0.027867
     33 H14          5.3890     0.4420    -1.1830 hc         1 75D       0.027867
     34 H15          4.2260    -0.8950    -1.2940 hc         1 75D       0.027867
     35 H16          2.3200    -1.7010     0.0420 ha         1 75D       0.090000
     36 H17         -1.2400    -2.6730    -0.3800 hc         1 75D       0.096200
     37 H18          1.5750    -3.3660    -1.2510 hc         1 75D       0.025283
     38 H19          0.0610    -4.2120    -1.6000 hc         1 75D       0.025283
     39 H20          0.3420    -2.5960    -2.2740 hc         1 75D       0.025283
     40 H21          1.1720    -3.4950     1.3320 hc         1 75D       0.025283
     41 H22         -0.3980    -3.0030     1.9960 hc         1 75D       0.025283
     42 H23         -0.2780    -4.4620     0.9920 hc         1 75D       0.025283
@<TRIPOS>BOND
     1     1     2 1   
     2     2     3 1   
     3     2     4 1   
     4     2     5 1   
     5     5     6 ar  
     6     5    16 ar  
     7     6     7 1   
     8     6    10 ar  
     9     7     8 1   
    10     7     9 1   
    11     7    20 1   
    12     8    21 1   
    13     8    22 1   
    14     8    23 1   
    15     9    24 1   
    16     9    25 1   
    17     9    26 1   
    18    10    11 ar  
    19    10    27 1   
    20    11    12 1   
    21    11    15 ar  
    22    12    13 1   
    23    12    14 1   
    24    12    28 1   
    25    13    29 1   
    26    13    30 1   
    27    13    31 1   
    28    14    32 1   
    29    14    33 1   
    30    14    34 1   
    31    15    16 ar  
    32    15    35 1   
    33    16    17 1   
    34    17    18 1   
    35    17    19 1   
    36    17    36 1   
    37    18    37 1   
    38    18    38 1   
    39    18    39 1   
    40    19    40 1   
    41    19    41 1   
    42    19    42 1   
@<TRIPOS>SUBSTRUCTURE
     1 75D         1 TEMP              0 ****  ****    0 ROOT
