@<TRIPOS>MOLECULE
75E
   41    45     1     0     0
SMALL
No Charge or Current Charge


@<TRIPOS>ATOM
      1 C1           3.5660     0.2810     1.4190 cc         1 75E      -0.317200
      2 C2           4.8640    -0.0150     0.8100 c          1 75E       0.555200
      3 C3           3.6700    -1.6830    -0.5320 cc         1 75E      -0.013400
      4 C7           0.1950    -4.0650    -1.2010 cc         1 75E      -0.232000
      5 C8          -0.0660    -1.7450    -0.2540 cc         1 75E      -0.298500
      6 C9          -0.5990    -0.3940    -0.1660 cc         1 75E       0.531500
      7 C10         -2.0100    -0.2780     0.1640 cc         1 75E      -0.336000
      8 C11         -2.6660     0.9330     0.2350 cd         1 75E       0.418000
      9 C12         -0.5460     1.8140    -0.3580 cd         1 75E       0.476500
     10 C13         -0.0330     3.0460    -0.5710 cc         1 75E      -0.235300
     11 C14         -1.1140     3.9390    -0.3640 cc         1 75E       0.456500
     12 C15          1.2790     3.4330    -0.9200 cg         1 75E       0.340700
     13 C16         -4.9420     0.0730     0.8940 cx         1 75E       0.150500
     14 N4           2.3540     3.7840    -1.2090 n1         1 75E      -0.468000
     15 N3          -2.2740     3.3640    -0.0360 nd         1 75E      -0.616100
     16 N1          -1.8600     2.0310    -0.0460 na         1 75E       0.058900
     17 N5          -3.9920     1.0940     0.5510 nu         1 75E      -0.927200
     18 C18         -6.3780     0.3020     0.4960 cx         1 75E      -0.126900
     19 C17         -5.5450    -0.7180    -0.2400 cx         1 75E      -0.126900
     20 N2           0.1770     0.6500    -0.4560 nd         1 75E      -0.683000
     21 S           -1.1240    -3.1370    -0.5170 ss         1 75E       0.230000
     22 C6           1.3890    -3.4260    -1.0030 cd         1 75E      -0.141000
     23 C5           1.2660    -2.1290    -0.4110 cd         1 75E       0.017200
     24 C4           2.4340    -1.3640     0.0160 cd         1 75E      -0.118200
     25 C            2.3930    -0.3590     1.0610 cd         1 75E      -0.059000
     26 N            4.8140    -1.0030    -0.1350 ns         1 75E      -0.360100
     27 O            5.9050     0.5460     1.1110 o          1 75E      -0.556000
     28 H1           3.5840     1.0400     2.1920 ha         1 75E       0.208000
     29 H2           3.8690    -2.4140    -1.3070 h4         1 75E       0.199000
     30 H3           0.0010    -5.0470    -1.6130 h4         1 75E       0.154000
     31 H4          -2.5760    -1.1680     0.3920 ha         1 75E       0.146000
     32 H5          -1.0840     5.0180    -0.4460 h4         1 75E       0.056800
     33 H6          -4.7490    -0.4520     1.8330 h1         1 75E       0.093700
     34 H7          -4.2590     2.0840     0.5590 hn         1 75E       0.535000
     35 H8          -7.1490    -0.0630     1.1700 hc         1 75E       0.085200
     36 H9          -6.6280     1.2230    -0.0250 hc         1 75E       0.085200
     37 H10         -5.2270    -0.4810    -1.2520 hc         1 75E       0.085200
     38 H11         -5.7540    -1.7700    -0.0620 hc         1 75E       0.085200
     39 H12          2.3310    -3.9070    -1.2410 ha         1 75E       0.138000
     40 H14          1.4730    -0.1290     1.5900 ha         1 75E       0.183000
     41 H13          5.7050    -1.2300    -0.5620 hn         1 75E       0.326500
@<TRIPOS>BOND
     1     1     2 1   
     2     1    25 2   
     3     1    28 1   
     4     2    26 1   
     5     2    27 2   
     6     3    24 2   
     7     3    26 1   
     8     3    29 1   
     9     4    21 1   
    10     4    22 2   
    11     4    30 1   
    12     5     6 1   
    13     5    21 1   
    14     5    23 2   
    15     6     7 1   
    16     6    20 2   
    17     7     8 2   
    18     7    31 1   
    19     8    16 1   
    20     8    17 1   
    21     9    10 2   
    22     9    16 1   
    23     9    20 1   
    24    10    11 1   
    25    10    12 1   
    26    11    15 2   
    27    11    32 1   
    28    12    14 3   
    29    13    17 1   
    30    13    18 1   
    31    13    19 1   
    32    13    33 1   
    33    15    16 1   
    34    17    34 1   
    35    18    19 1   
    36    18    35 1   
    37    18    36 1   
    38    19    37 1   
    39    19    38 1   
    40    22    23 1   
    41    22    39 1   
    42    23    24 1   
    43    24    25 1   
    44    25    40 1   
    45    26    41 1   
@<TRIPOS>SUBSTRUCTURE
     1 75E         1 TEMP              0 ****  ****    0 ROOT
