@<TRIPOS>MOLECULE
75E
   41    45     1     0     0
SMALL
abcg2


@<TRIPOS>ATOM
      1 C1           3.3560     0.2660     1.4560 cc         1 75E      -0.317200
      2 C2           4.5740     0.2490     0.6890 c          1 75E       0.555200
      3 C3           3.4850    -1.3980    -0.7230 cc         1 75E      -0.013400
      4 C7           0.1950    -4.2350    -1.0030 cc         1 75E      -0.232000
      5 C8          -0.1300    -1.8470    -0.4580 cc         1 75E      -0.298500
      6 C9          -0.7150    -0.5200    -0.2850 cc         1 75E       0.531500
      7 C10         -2.0540    -0.3830     0.1110 cc         1 75E      -0.336000
      8 C11         -2.6010     0.8860     0.2360 cd         1 75E       0.418000
      9 C12         -0.4380     1.7100    -0.3630 cd         1 75E       0.476500
     10 C13          0.0940     2.9990    -0.4900 cc         1 75E      -0.235300
     11 C14         -0.9740     3.8660    -0.1890 cc         1 75E       0.456500
     12 C15          1.4160     3.3190    -0.8370 cg         1 75E       0.340700
     13 C16         -4.8280     0.1910     0.8780 cx         1 75E       0.150500
     14 N4           2.5020     3.5850    -1.1220 n1         1 75E      -0.468000
     15 N3          -2.0770     3.2190     0.1020 nd         1 75E      -0.616100
     16 N1          -1.7460     1.9190    -0.0020 na         1 75E       0.058900
     17 N5          -3.8540     1.1850     0.5650 nu         1 75E      -0.927200
     18 C18         -6.2030     0.3810     0.3310 cx         1 75E      -0.126900
     19 C17         -5.3280    -0.7000    -0.2190 cx         1 75E      -0.126900
     20 N2           0.0840     0.5090    -0.5320 nd         1 75E      -0.683000
     21 S           -1.1380    -3.1790    -0.8940 ss         1 75E       0.230000
     22 C6           1.3630    -3.6020    -0.7140 cd         1 75E      -0.141000
     23 C5           1.1950    -2.2230    -0.3970 cd         1 75E       0.017200
     24 C4           2.3250    -1.3680    -0.0150 cd         1 75E      -0.118200
     25 C            2.2910    -0.5010     1.1140 cd         1 75E      -0.059000
     26 N            4.5390    -0.6260    -0.3790 ns         1 75E      -0.360100
     27 O            5.5790     0.9170     0.9180 o          1 75E      -0.556000
     28 H1           3.3170     0.9120     2.3220 ha         1 75E       0.208000
     29 H2           3.6250    -2.0180    -1.5980 h4         1 75E       0.199000
     30 H3           0.0510    -5.2710    -1.2650 h4         1 75E       0.154000
     31 H4          -2.6640    -1.2420     0.3450 ha         1 75E       0.146000
     32 H5          -0.9550     4.9450    -0.1800 h4         1 75E       0.056800
     33 H6          -4.7370    -0.2400     1.8700 h1         1 75E       0.093700
     34 H7          -4.0820     2.1580     0.7100 hn         1 75E       0.535000
     35 H8          -7.0340     0.1080     0.9670 hc         1 75E       0.085200
     36 H9          -6.3760     1.2500    -0.2910 hc         1 75E       0.085200
     37 H10         -4.9150    -0.5570    -1.2090 hc         1 75E       0.085200
     38 H11         -5.5480    -1.7280     0.0360 hc         1 75E       0.085200
     39 H12          2.3220    -4.1010    -0.7020 ha         1 75E       0.138000
     40 H14          1.4020    -0.4740     1.7310 ha         1 75E       0.183000
     41 H13          5.3740    -0.6830    -0.9470 hn         1 75E       0.326500
@<TRIPOS>BOND
     1     1     2 1   
     2     1    25 2   
     3     1    28 1   
     4     2    26 1   
     5     2    27 2   
     6     3    24 2   
     7     3    26 1   
     8     3    29 1   
     9     4    21 1   
    10     4    22 2   
    11     4    30 1   
    12     5     6 1   
    13     5    21 1   
    14     5    23 2   
    15     6     7 1   
    16     6    20 2   
    17     7     8 2   
    18     7    31 1   
    19     8    16 1   
    20     8    17 1   
    21     9    10 2   
    22     9    16 1   
    23     9    20 1   
    24    10    11 1   
    25    10    12 1   
    26    11    15 2   
    27    11    32 1   
    28    12    14 3   
    29    13    17 1   
    30    13    18 1   
    31    13    19 1   
    32    13    33 1   
    33    15    16 1   
    34    17    34 1   
    35    18    19 1   
    36    18    35 1   
    37    18    36 1   
    38    19    37 1   
    39    19    38 1   
    40    22    23 1   
    41    22    39 1   
    42    23    24 1   
    43    24    25 1   
    44    25    40 1   
    45    26    41 1   
@<TRIPOS>SUBSTRUCTURE
     1 75E         1 TEMP              0 ****  ****    0 ROOT
