@<TRIPOS>MOLECULE
75G
   34    37     1     0     0
SMALL
bcc


@<TRIPOS>ATOM
      1 C1           4.2270    -0.7140     0.3470 ca         1 75G       0.817000
      2 C2           2.4180     0.3490    -0.2230 ca         1 75G       0.458800
      3 C3           2.9200     1.5620     0.2140 ca         1 75G      -0.230200
      4 C4           4.2190     1.5340     0.7600 ca         1 75G       0.799200
      5 P1          -4.1940    -0.1690     0.5680 p5         1 75G       1.338500
      6 O1          -5.3820    -0.9900     0.8410 o          1 75G      -0.660300
      7 O2          -4.2290     0.4740    -0.8980 os         1 75G      -0.549200
      8 C5          -3.0610     1.0200    -1.5390 c6         1 75G       0.185400
      9 C6          -2.0060    -0.0620    -1.4450 c5         1 75G       0.047100
     10 O3          -0.7420     0.3040    -1.9540 os         1 75G      -0.380600
     11 C7           0.2580    -0.3710    -1.2300 c5         1 75G       0.221800
     12 C8          -0.4420    -1.1930    -0.1090 c5         1 75G       0.131100
     13 O4          -0.7820    -2.4730    -0.5400 oh         1 75G      -0.565800
     14 C9          -1.7050    -0.3660     0.0130 c5         1 75G       0.120100
     15 O5          -2.8040    -0.9810     0.6610 os         1 75G      -0.469200
     16 N1           1.1710     0.6210    -0.6930 na         1 75G      -0.275000
     17 C10          0.9820     1.9680    -0.5180 cc         1 75G       0.417700
     18 N2           2.0060     2.5620     0.0190 nd         1 75G      -0.539100
     19 N3           4.8350     2.6160     1.2220 nv         1 75G      -0.940500
     20 N4           4.8490     0.3520     0.8080 nb         1 75G      -0.817000
     21 CL1          5.1360    -2.1880     0.4580 cl         1 75G      -0.129000
     22 N5           3.0330    -0.8340    -0.1790 nb         1 75G      -0.752000
     23 H3          -2.7490     1.9420    -1.0400 h1         1 75G       0.082200
     24 H4          -2.3810    -0.9590    -1.9520 h1         1 75G       0.103700
     25 H5           0.8340    -1.0310    -1.8850 h2         1 75G       0.114700
     26 H6           0.1570    -1.2010     0.8070 h1         1 75G       0.092700
     27 H7           0.0050    -3.0280    -0.5270 ho         1 75G       0.429000
     28 H8          -1.4410     0.5650     0.5310 h1         1 75G       0.083700
     29 H9           0.0720     2.4640    -0.8180 h5         1 75G       0.074800
     30 H10          4.3840     3.5140     1.2120 hn         1 75G       0.458800
     31 H11          5.7530     2.5470     1.6270 hn         1 75G       0.458800
     32 H12         -4.9230     2.0840     1.5920 hs         1 75G       0.327800
     33 H2          -3.3490     1.2520    -2.5620 h1         1 75G       0.082200
     34 S1          -3.8190     1.3900     1.8990 sh         1 75G      -0.536200
@<TRIPOS>BOND
     1     1    20 ar  
     2     1    21 1   
     3     1    22 ar  
     4     2     3 ar  
     5     2    16 1   
     6     2    22 ar  
     7     3     4 ar  
     8     3    18 1   
     9     4    19 1   
    10     4    20 ar  
    11     5     6 2   
    12     5     7 1   
    13     5    15 1   
    14     5    34 1   
    15     7     8 1   
    16     8     9 1   
    17     8    23 1   
    18     8    33 1   
    19     9    10 1   
    20     9    14 1   
    21     9    24 1   
    22    10    11 1   
    23    11    12 1   
    24    11    16 1   
    25    11    25 1   
    26    12    13 1   
    27    12    14 1   
    28    12    26 1   
    29    13    27 1   
    30    14    15 1   
    31    14    28 1   
    32    16    17 1   
    33    17    18 2   
    34    17    29 1   
    35    19    30 1   
    36    19    31 1   
    37    32    34 1   
@<TRIPOS>SUBSTRUCTURE
     1 75G         1 TEMP              0 ****  ****    0 ROOT
