@<TRIPOS>MOLECULE
75G
   34    37     1     0     0
SMALL
No Charge or Current Charge


@<TRIPOS>ATOM
      1 C1           4.5870     0.0740    -1.3020 ca         1 75G       0.291000
      2 C2           2.6030     0.3800    -0.2130 ca         1 75G       0.130500
      3 C3           3.1720     1.3730     0.5420 ca         1 75G      -0.099600
      4 C4           4.5270     1.6890     0.3110 ca         1 75G       0.470900
      5 P1          -4.4980     0.1890    -0.2050 p5         1 75G       1.109200
      6 O1          -5.8660    -0.3270     0.0610 o          1 75G      -0.431000
      7 O2          -4.0760     0.2120    -1.7740 os         1 75G      -0.572400
      8 C5          -2.7110     0.5370    -2.1460 c6         1 75G       0.208600
      9 C6          -1.7570    -0.3410    -1.3130 c5         1 75G       0.070300
     10 O3          -0.3570    -0.0410    -1.4300 os         1 75G      -0.427000
     11 C7           0.3000    -0.6540    -0.2770 c5         1 75G       0.274300
     12 C8          -0.8530    -1.0980     0.7260 c5         1 75G       0.154300
     13 O4          -1.2080    -2.4880     0.5810 oh         1 75G      -0.688000
     14 C9          -1.9720    -0.1620     0.1960 c5         1 75G       0.143300
     15 O5          -3.3000    -0.6420     0.5190 os         1 75G      -0.492400
     16 N1           1.3100     0.2860     0.2170 na         1 75G      -0.304300
     17 C10          1.1380     1.2370     1.2310 cc         1 75G       0.417700
     18 N2           2.2730     1.9260     1.4580 nd         1 75G      -0.539100
     19 N3           5.1810     2.6560     1.0090 nv         1 75G      -1.050900
     20 N4           5.2450     1.0370    -0.6150 nb         1 75G      -0.291000
     21 Cl1          5.5120    -0.7910    -2.5190 cl         1 75G      -0.129000
     22 N5           3.2930    -0.2950    -1.1510 nb         1 75G      -0.226000
     23 H3          -2.5180     1.6040    -1.9650 h1         1 75G       0.082200
     24 H4          -1.9190    -1.3840    -1.6240 h1         1 75G       0.103700
     25 H5           0.8550    -1.5470    -0.5960 h2         1 75G       0.114700
     26 H6          -0.5980    -0.8730     1.7720 h1         1 75G       0.092700
     27 H7          -2.1650    -2.5440     0.8200 ho         1 75G       0.528000
     28 H8          -1.8280     0.8750     0.5290 h1         1 75G       0.083700
     29 H9           0.1970     1.3800     1.7500 h5         1 75G       0.074800
     30 H10          4.7220     2.9960     1.8510 hn         1 75G       0.514000
     31 H11          6.1970     2.6350     1.0230 hn         1 75G       0.514000
     32 H12         -5.4750     2.1470     0.8230 hs         1 75G       0.327800
     33 H2          -2.5700     0.3380    -3.2180 h1         1 75G       0.082200
     34 S1          -4.1890     2.1760     0.3970 sh         1 75G      -0.536200
@<TRIPOS>BOND
     1     1    20 ar  
     2     1    21 1   
     3     1    22 ar  
     4     2     3 ar  
     5     2    16 1   
     6     2    22 ar  
     7     3     4 ar  
     8     3    18 1   
     9     4    19 1   
    10     4    20 ar  
    11     5     6 2   
    12     5     7 1   
    13     5    15 1   
    14     5    34 1   
    15     7     8 1   
    16     8     9 1   
    17     8    23 1   
    18     8    33 1   
    19     9    10 1   
    20     9    14 1   
    21     9    24 1   
    22    10    11 1   
    23    11    12 1   
    24    11    16 1   
    25    11    25 1   
    26    12    13 1   
    27    12    14 1   
    28    12    26 1   
    29    13    27 1   
    30    14    15 1   
    31    14    28 1   
    32    16    17 1   
    33    17    18 2   
    34    17    29 1   
    35    19    30 1   
    36    19    31 1   
    37    32    34 1   
@<TRIPOS>SUBSTRUCTURE
     1 75G         1 TEMP              0 ****  ****    0 ROOT
