@<TRIPOS>MOLECULE
75H
   70    74     1     0     0
SMALL
abcg2


@<TRIPOS>ATOM
      1 C16        -11.3890    -0.6120    -1.5800 c3         1 75H       0.150900
      2 O2         -10.7980     0.0210    -0.4600 os         1 75H      -0.340100
      3 C2          -9.4610     0.1040    -0.3840 ca         1 75H       0.157100
      4 C3          -8.9380     0.7200     0.7330 ca         1 75H      -0.149000
      5 C1          -8.5920    -0.4020    -1.3770 ca         1 75H      -0.199000
      6 C6          -7.2360    -0.2840    -1.2300 ca         1 75H      -0.028000
      7 C5          -6.6800     0.3390    -0.0970 ca         1 75H      -0.133000
      8 C4          -7.5490     0.8500     0.9010 ca         1 75H       0.326000
      9 N1          -7.0920     1.4620     2.0250 nb         1 75H      -0.691000
     10 C7          -5.8000     1.5690     2.1700 ca         1 75H       0.393900
     11 C8          -4.8380     1.1020     1.2540 ca         1 75H      -0.273000
     12 C9          -5.2850     0.4850     0.1160 ca         1 75H       0.200100
     13 O1          -4.4880     0.0010    -0.8570 os         1 75H      -0.227200
     14 C10         -3.1320    -0.0160    -0.6580 ca         1 75H       0.000100
     15 C11         -2.5460    -1.0480     0.0540 ca         1 75H       0.195000
     16 C12         -1.1830    -1.1430     0.2400 ca         1 75H      -0.187000
     17 F1          -3.3400    -1.9840     0.5850 f          1 75H      -0.163000
     18 C15         -2.3130     0.9600    -1.1990 ca         1 75H      -0.055000
     19 C14         -0.9430     0.8890    -1.0310 ca         1 75H      -0.184000
     20 C13         -0.3590    -0.1580    -0.3100 ca         1 75H       0.034000
     21 N2           1.0230    -0.1410    -0.1910 ns         1 75H      -0.148000
     22 C22          1.8420    -1.0300     0.4440 c          1 75H       0.671300
     23 O5           1.4370    -2.0230     1.0320 o          1 75H      -0.610100
     24 C17          3.2570    -0.6880     0.3520 cc         1 75H      -0.421400
     25 C19          3.8110     0.4520    -0.3190 c          1 75H       0.577200
     26 O3           3.2680     1.3800    -0.9190 o          1 75H      -0.565000
     27 C18          4.3070    -1.3760     0.9380 cd         1 75H       0.250800
     28 C21          4.2480    -2.6020     1.7710 c3         1 75H      -0.057900
     29 N3           5.4510    -0.7270     0.6810 na         1 75H      -0.393400
     30 C28          6.7930    -1.2790     0.7100 c3         1 75H       0.193800
     31 C29          7.1270    -2.2170    -0.4680 c3         1 75H       0.165000
     32 C30          7.1120    -1.4830    -1.8020 c3         1 75H      -0.107600
     33 C31          8.5130    -2.7980    -0.2010 c3         1 75H      -0.107600
     34 O4           6.1540    -3.2390    -0.5670 oh         1 75H      -0.649000
     35 N4           5.1760     0.3550    -0.1300 n          1 75H      -0.156400
     36 C20          6.0410     1.4760    -0.1610 ca         1 75H       0.033600
     37 C23          6.3700     2.0320    -1.3890 ca         1 75H      -0.101500
     38 C24          7.1790     3.1590    -1.4320 ca         1 75H      -0.102500
     39 C25          7.6710     3.7120    -0.2580 ca         1 75H      -0.103000
     40 C26          7.3450     3.1420     0.9670 ca         1 75H      -0.102500
     41 C27          6.5180     2.0300     1.0210 ca         1 75H      -0.101500
     42 H1         -12.4640    -0.5690    -1.4240 h1         1 75H       0.041033
     43 H2         -11.1500    -0.0980    -2.5140 h1         1 75H       0.041033
     44 H3         -11.0880    -1.6590    -1.6640 h1         1 75H       0.041033
     45 H4          -9.5930     1.1120     1.5010 ha         1 75H       0.144000
     46 H5          -8.9780    -0.8850    -2.2640 ha         1 75H       0.117000
     47 H6          -6.5940    -0.6820    -2.0040 ha         1 75H       0.128000
     48 H7          -5.4510     2.0610     3.0720 h4         1 75H       0.015100
     49 H8          -3.7880     1.2460     1.4690 ha         1 75H       0.135000
     50 H9          -0.7850    -1.9730     0.8010 ha         1 75H       0.168000
     51 H10         -2.7510     1.7770    -1.7580 ha         1 75H       0.131000
     52 H11         -0.3200     1.6610    -1.4640 ha         1 75H       0.128000
     53 H12          1.4980     0.6440    -0.6320 hn         1 75H       0.191000
     54 H13          3.5790    -2.4290     2.6120 hc         1 75H       0.072367
     55 H14          3.8420    -3.4360     1.2030 hc         1 75H       0.072367
     56 H15          5.2180    -2.8900     2.1640 hc         1 75H       0.072367
     57 H16          7.5050    -0.4550     0.7460 h1         1 75H       0.073200
     58 H17          6.9010    -1.8070     1.6580 h1         1 75H       0.073200
     59 H18          7.4550    -2.1470    -2.5970 hc         1 75H       0.050700
     60 H19          6.1140    -1.1340    -2.0660 hc         1 75H       0.050700
     61 H20          7.7770    -0.6200    -1.7800 hc         1 75H       0.050700
     62 H21          8.5400    -3.3440     0.7460 hc         1 75H       0.050700
     63 H22          8.7960    -3.4870    -0.9970 hc         1 75H       0.050700
     64 H23          9.2680    -2.0130    -0.1510 hc         1 75H       0.050700
     65 H24          6.3210    -3.9040     0.1090 ho         1 75H       0.442000
     66 H25          6.0050     1.5830    -2.3020 ha         1 75H       0.128500
     67 H26          7.4300     3.5980    -2.3880 ha         1 75H       0.120500
     68 H27          8.3100     4.5840    -0.2960 ha         1 75H       0.119000
     69 H28          7.7230     3.5710     1.8850 ha         1 75H       0.120500
     70 H29          6.2460     1.6000     1.9770 ha         1 75H       0.128500
@<TRIPOS>BOND
     1     1     2 1   
     2     1    42 1   
     3     1    43 1   
     4     1    44 1   
     5     2     3 1   
     6     3     4 ar  
     7     3     5 ar  
     8     4     8 ar  
     9     4    45 1   
    10     5     6 ar  
    11     5    46 1   
    12     6     7 ar  
    13     6    47 1   
    14     7     8 ar  
    15     7    12 ar  
    16     8     9 ar  
    17     9    10 ar  
    18    10    11 ar  
    19    10    48 1   
    20    11    12 ar  
    21    11    49 1   
    22    12    13 1   
    23    13    14 1   
    24    14    15 ar  
    25    14    18 ar  
    26    15    16 ar  
    27    15    17 1   
    28    16    20 ar  
    29    16    50 1   
    30    18    19 ar  
    31    18    51 1   
    32    19    20 ar  
    33    19    52 1   
    34    20    21 1   
    35    21    22 1   
    36    21    53 1   
    37    22    23 2   
    38    22    24 1   
    39    24    25 1   
    40    24    27 2   
    41    25    26 2   
    42    25    35 1   
    43    27    28 1   
    44    27    29 1   
    45    28    54 1   
    46    28    55 1   
    47    28    56 1   
    48    29    30 1   
    49    29    35 1   
    50    30    31 1   
    51    30    57 1   
    52    30    58 1   
    53    31    32 1   
    54    31    33 1   
    55    31    34 1   
    56    32    59 1   
    57    32    60 1   
    58    32    61 1   
    59    33    62 1   
    60    33    63 1   
    61    33    64 1   
    62    34    65 1   
    63    35    36 1   
    64    36    37 ar  
    65    36    41 ar  
    66    37    38 ar  
    67    37    66 1   
    68    38    39 ar  
    69    38    67 1   
    70    39    40 ar  
    71    39    68 1   
    72    40    41 ar  
    73    40    69 1   
    74    41    70 1   
@<TRIPOS>SUBSTRUCTURE
     1 75H         1 TEMP              0 ****  ****    0 ROOT
