@<TRIPOS>MOLECULE
75H
   70    74     1     0     0
SMALL
No Charge or Current Charge


@<TRIPOS>ATOM
      1 C16        -11.1560    -1.3670    -1.9680 c3         1 75H       0.150900
      2 O2         -10.6650    -0.8350    -0.7240 os         1 75H      -0.340100
      3 C2          -9.3570    -0.4240    -0.5650 ca         1 75H       0.157100
      4 C3          -8.9770     0.0790     0.6870 ca         1 75H      -0.149000
      5 C1          -8.4070    -0.4960    -1.6030 ca         1 75H      -0.199000
      6 C6          -7.0910    -0.0630    -1.3800 ca         1 75H      -0.028000
      7 C5          -6.7160     0.4440    -0.1180 ca         1 75H      -0.133000
      8 C4          -7.6660     0.5170     0.9290 ca         1 75H       0.326000
      9 N1          -7.3470     0.9960     2.1530 nb         1 75H      -0.691000
     10 C7          -6.0850     1.4190     2.3800 ca         1 75H       0.393900
     11 C8          -5.0880     1.3830     1.4020 ca         1 75H      -0.273000
     12 C9          -5.4010     0.8790     0.1320 ca         1 75H       0.200100
     13 O1          -4.4490     0.8350    -0.8650 os         1 75H      -0.227200
     14 C10         -3.1080     0.6450    -0.6060 ca         1 75H       0.000100
     15 C11         -2.6480    -0.4580     0.1460 ca         1 75H       0.195000
     16 C12         -1.2760    -0.6290     0.3880 ca         1 75H      -0.187000
     17 F1          -3.5190    -1.3730     0.6290 f          1 75H      -0.163000
     18 C15         -2.1800     1.5590    -1.1280 ca         1 75H      -0.055000
     19 C14         -0.8070     1.3850    -0.8830 ca         1 75H      -0.184000
     20 C13         -0.3400     0.2970    -0.1210 ca         1 75H       0.034000
     21 N2           1.0630     0.1950     0.0780 ns         1 75H      -0.148000
     22 C22          1.8510    -0.6880     0.8000 c          1 75H       0.671300
     23 O5           1.3850    -1.6090     1.4570 o          1 75H      -0.610100
     24 C17          3.3020    -0.4310     0.7190 cc         1 75H      -0.421400
     25 C19          3.9050     0.6440    -0.0340 c          1 75H       0.577200
     26 O3           3.3520     1.5190    -0.6850 o          1 75H      -0.565000
     27 C18          4.2590    -1.1850     1.3590 cd         1 75H       0.250800
     28 C21          4.1080    -2.4030     2.2380 c3         1 75H      -0.057900
     29 N3           5.5080    -0.6560     0.9960 na         1 75H      -0.393400
     30 C28          6.7830    -1.4020     0.7730 c3         1 75H       0.193800
     31 C29          6.8140    -2.4130    -0.4280 c3         1 75H       0.165000
     32 C30          6.4380    -1.7440    -1.7720 c3         1 75H      -0.107600
     33 C31          8.2190    -3.0510    -0.5310 c3         1 75H      -0.107600
     34 O4           5.8850    -3.4800    -0.1980 oh         1 75H      -0.649000
     35 N4           5.2760     0.5250     0.1890 n          1 75H      -0.156400
     36 C20          6.2710     1.5280    -0.0830 ca         1 75H       0.033600
     37 C23          6.3010     2.1820    -1.3310 ca         1 75H      -0.101500
     38 C24          7.2750     3.1590    -1.5990 ca         1 75H      -0.102500
     39 C25          8.2250     3.4940    -0.6200 ca         1 75H      -0.103000
     40 C26          8.1990     2.8520     0.6290 ca         1 75H      -0.102500
     41 C27          7.2250     1.8740     0.8970 ca         1 75H      -0.101500
     42 H1         -12.2170    -1.6290    -1.8760 h1         1 75H       0.041033
     43 H2         -11.0570    -0.6290    -2.7740 h1         1 75H       0.041033
     44 H3         -10.6050    -2.2730    -2.2490 h1         1 75H       0.041033
     45 H4          -9.7120     0.1320     1.4840 ha         1 75H       0.144000
     46 H5          -8.6690    -0.8810    -2.5840 ha         1 75H       0.117000
     47 H6          -6.3680    -0.1250    -2.1910 ha         1 75H       0.128000
     48 H7          -5.8730     1.8030     3.3770 h4         1 75H       0.015100
     49 H8          -4.0930     1.7460     1.6370 ha         1 75H       0.135000
     50 H9          -0.9680    -1.4920     0.9680 ha         1 75H       0.168000
     51 H10         -2.5260     2.4050    -1.7180 ha         1 75H       0.131000
     52 H11         -0.1000     2.1060    -1.2900 ha         1 75H       0.128000
     53 H12          1.5960     0.9080    -0.4040 hn         1 75H       0.191000
     54 H13          3.4620    -2.1870     3.0950 hc         1 75H       0.072367
     55 H14          3.6640    -3.2340     1.6790 hc         1 75H       0.072367
     56 H15          5.0690    -2.7440     2.6340 hc         1 75H       0.072367
     57 H16          7.5970    -0.6840     0.6260 h1         1 75H       0.073200
     58 H17          7.0260    -1.9480     1.6930 h1         1 75H       0.073200
     59 H18          6.5600    -2.4420    -2.6090 hc         1 75H       0.050700
     60 H19          5.3950    -1.4080    -1.7700 hc         1 75H       0.050700
     61 H20          7.0770    -0.8730    -1.9640 hc         1 75H       0.050700
     62 H21          8.4850    -3.5640     0.4010 hc         1 75H       0.050700
     63 H22          8.2630    -3.7850    -1.3460 hc         1 75H       0.050700
     64 H23          8.9800    -2.2860    -0.7250 hc         1 75H       0.050700
     65 H24          5.9120    -4.0620    -0.9880 ho         1 75H       0.442000
     66 H25          5.5770     1.9250    -2.0990 ha         1 75H       0.128500
     67 H26          7.2940     3.6560    -2.5670 ha         1 75H       0.120500
     68 H27          8.9790     4.2510    -0.8280 ha         1 75H       0.119000
     69 H28          8.9300     3.1130     1.3910 ha         1 75H       0.120500
     70 H29          7.2050     1.3910     1.8720 ha         1 75H       0.128500
@<TRIPOS>BOND
     1     1     2 1   
     2     1    42 1   
     3     1    43 1   
     4     1    44 1   
     5     2     3 1   
     6     3     4 ar  
     7     3     5 ar  
     8     4     8 ar  
     9     4    45 1   
    10     5     6 ar  
    11     5    46 1   
    12     6     7 ar  
    13     6    47 1   
    14     7     8 ar  
    15     7    12 ar  
    16     8     9 ar  
    17     9    10 ar  
    18    10    11 ar  
    19    10    48 1   
    20    11    12 ar  
    21    11    49 1   
    22    12    13 1   
    23    13    14 1   
    24    14    15 ar  
    25    14    18 ar  
    26    15    16 ar  
    27    15    17 1   
    28    16    20 ar  
    29    16    50 1   
    30    18    19 ar  
    31    18    51 1   
    32    19    20 ar  
    33    19    52 1   
    34    20    21 1   
    35    21    22 1   
    36    21    53 1   
    37    22    23 2   
    38    22    24 1   
    39    24    25 1   
    40    24    27 2   
    41    25    26 2   
    42    25    35 1   
    43    27    28 1   
    44    27    29 1   
    45    28    54 1   
    46    28    55 1   
    47    28    56 1   
    48    29    30 1   
    49    29    35 1   
    50    30    31 1   
    51    30    57 1   
    52    30    58 1   
    53    31    32 1   
    54    31    33 1   
    55    31    34 1   
    56    32    59 1   
    57    32    60 1   
    58    32    61 1   
    59    33    62 1   
    60    33    63 1   
    61    33    64 1   
    62    34    65 1   
    63    35    36 1   
    64    36    37 ar  
    65    36    41 ar  
    66    37    38 ar  
    67    37    66 1   
    68    38    39 ar  
    69    38    67 1   
    70    39    40 ar  
    71    39    68 1   
    72    40    41 ar  
    73    40    69 1   
    74    41    70 1   
@<TRIPOS>SUBSTRUCTURE
     1 75H         1 TEMP              0 ****  ****    0 ROOT
