@<TRIPOS>MOLECULE
75I
   36    36     1     0     0
SMALL
No Charge or Current Charge


@<TRIPOS>ATOM
      1 C2          12.2570    29.7810    86.8440 c6         1 75I       0.200300
      2 C3          10.8060    29.7970    86.2410 c6         1 75I       0.166300
      3 C4          10.8750    29.7590    84.6720 c6         1 75I       0.204300
      4 C5          11.6690    28.4900    84.1710 c6         1 75I       0.170300
      5 O2          12.2390    29.9360    88.2890 os         1 75I      -0.590400
      6 P2          12.4160    31.4020    88.9280 p5         1 75I       1.330900
      7 O32         12.2500    31.3220    90.4040 o          1 75I      -0.945500
      8 C1          13.0070    28.4760    86.3850 c6         1 75I       0.251300
      9 C6          13.0890    28.4010    84.8210 c6         1 75I      -0.106700
     10 O1          14.3330    28.3750    86.9640 os         1 75I      -0.605400
     11 O3          10.0000    30.9030    86.7250 oh         1 75I      -0.766000
     12 O4           9.5450    29.8420    84.0860 os         1 75I      -0.623400
     13 O5          11.7850    28.4580    82.7320 oh         1 75I      -0.815000
     14 P1          14.7090    27.1020    87.8810 p5         1 75I       1.338900
     15 O11         14.4870    25.8510    87.1060 o          1 75I      -0.944167
     16 O31         16.1480    27.1910    88.2540 o          1 75I      -0.944167
     17 P4           9.3010    30.6660    82.7280 p5         1 75I       1.330900
     18 O14          9.6590    32.0970    82.9130 o          1 75I      -0.949500
     19 O24         10.1410    30.0620    81.6630 o          1 75I      -0.949500
     20 O34          7.8670    30.5570    82.3470 o          1 75I      -0.949500
     21 H1          12.8020    30.6340    86.4130 h1         1 75I       0.023700
     22 H2          10.3210    28.8620    86.5610 h1         1 75I      -0.003300
     23 H3          11.4450    30.6460    84.3550 h1         1 75I       0.025700
     24 H4          11.1000    27.6070    84.4980 h1         1 75I       0.010700
     25 H6          13.8380    25.8610    85.7690 ho         1 75I       0.537000
     26 H11         12.4060    27.6200    86.7290 h1         1 75I       0.026700
     27 H12         13.6610    29.2750    84.4790 hc         1 75I       0.022700
     28 H13         10.5780    31.4230    87.3830 ho         1 75I       0.513000
     29 H14         11.0870    29.1030    82.3600 ho         1 75I       0.518000
     30 C06         13.9000    27.1600    84.3200 c3         1 75I       0.198600
     31 H8          13.9030    27.1330    83.2230 h1         1 75I      -0.012300
     32 O21         13.8850    27.0690    89.1180 o          1 75I      -0.944167
     33 O06         13.4140    25.9200    84.8370 oh         1 75I      -0.817000
     34 O12         13.7600    31.9550    88.6070 o          1 75I      -0.945500
     35 O22         11.3590    32.2790    88.3620 o          1 75I      -0.945500
     36 H9          14.9470    27.2870    84.6230 h1         1 75I      -0.012300
@<TRIPOS>BOND
     1     1     2 1   
     2     1     5 1   
     3     1     8 1   
     4     1    21 1   
     5     2     3 1   
     6     2    11 1   
     7     2    22 1   
     8     3     4 1   
     9     3    12 1   
    10     3    23 1   
    11     4     9 1   
    12     4    13 1   
    13     4    24 1   
    14     5     6 1   
    15     6     7 1   
    16     6    34 1   
    17     6    35 1   
    18     8     9 1   
    19     8    10 1   
    20     8    26 1   
    21     9    27 1   
    22     9    30 1   
    23    10    14 1   
    24    11    28 1   
    25    12    17 1   
    26    13    29 1   
    27    14    15 1   
    28    14    16 1   
    29    14    32 1   
    30    17    18 1   
    31    17    19 1   
    32    17    20 1   
    33    25    33 1   
    34    30    31 1   
    35    30    33 1   
    36    30    36 1   
@<TRIPOS>SUBSTRUCTURE
     1 75I         1 TEMP              0 ****  ****    0 ROOT
