@<TRIPOS>MOLECULE
75I
   36    36     1     0     0
SMALL
abcg2


@<TRIPOS>ATOM
      1 C2          12.2620    29.8200    86.7950 c6         1 75I       0.200300
      2 C3          10.9010    29.9550    86.1070 c6         1 75I       0.166300
      3 C4          10.9860    29.8080    84.5910 c6         1 75I       0.204300
      4 C5          11.7500    28.5550    84.1640 c6         1 75I       0.170300
      5 O2          12.0660    29.8370    88.2050 os         1 75I      -0.590400
      6 P2          12.3600    31.2230    89.0950 p5         1 75I       1.330900
      7 O32         12.0820    30.7620    90.5140 o          1 75I      -0.945500
      8 C1          12.9590    28.5210    86.3880 c6         1 75I       0.251300
      9 C6          13.1090    28.4590    84.8600 c6         1 75I      -0.106700
     10 O1          14.2420    28.4430    86.9960 os         1 75I      -0.605400
     11 O3          10.2780    31.1960    86.4020 oh         1 75I      -0.766000
     12 O4           9.6500    29.7680    84.0910 os         1 75I      -0.623400
     13 O5          11.9600    28.5370    82.7570 oh         1 75I      -0.815000
     14 P1          14.7510    27.1290    87.9030 p5         1 75I       1.338900
     15 O11         14.0070    25.9110    87.3270 o          1 75I      -0.944167
     16 O31         16.2500    27.1220    87.6450 o          1 75I      -0.944167
     17 P4           9.2120    30.5320    82.6710 p5         1 75I       1.330900
     18 O14          9.6410    31.9860    82.7950 o          1 75I      -0.949500
     19 O24          9.9800    29.7730    81.5710 o          1 75I      -0.949500
     20 O34          7.7120    30.3020    82.6310 o          1 75I      -0.949500
     21 H1          12.9050    30.6590    86.5030 h1         1 75I       0.023700
     22 H2          10.2730    29.1320    86.4830 h1         1 75I      -0.003300
     23 H3          11.5040    30.6870    84.1910 h1         1 75I       0.025700
     24 H4          11.1430    27.6860    84.4570 h1         1 75I       0.010700
     25 H6          13.5550    25.9010    85.7860 ho         1 75I       0.537000
     26 H11         12.3430    27.6830    86.7270 h1         1 75I       0.026700
     27 H12         13.6960    29.3350    84.5520 hc         1 75I       0.022700
     28 H13         10.6550    31.5740    87.2510 ho         1 75I       0.513000
     29 H14         11.1810    28.9740    82.2970 ho         1 75I       0.518000
     30 C06         13.8960    27.2270    84.4020 c3         1 75I       0.198600
     31 H8          13.9380    27.2270    83.3120 h1         1 75I      -0.012300
     32 O21         14.3690    27.4010    89.3500 o          1 75I      -0.944167
     33 O06         13.3200    25.9940    84.8140 oh         1 75I      -0.817000
     34 O12         13.7970    31.6380    88.8200 o          1 75I      -0.945500
     35 O22         11.3340    32.2400    88.5580 o          1 75I      -0.945500
     36 H9          14.9210    27.3060    84.7790 h1         1 75I      -0.012300
@<TRIPOS>BOND
     1     1     2 1   
     2     1     5 1   
     3     1     8 1   
     4     1    21 1   
     5     2     3 1   
     6     2    11 1   
     7     2    22 1   
     8     3     4 1   
     9     3    12 1   
    10     3    23 1   
    11     4     9 1   
    12     4    13 1   
    13     4    24 1   
    14     5     6 1   
    15     6     7 1   
    16     6    34 1   
    17     6    35 1   
    18     8     9 1   
    19     8    10 1   
    20     8    26 1   
    21     9    27 1   
    22     9    30 1   
    23    10    14 1   
    24    11    28 1   
    25    12    17 1   
    26    13    29 1   
    27    14    15 1   
    28    14    16 1   
    29    14    32 1   
    30    17    18 1   
    31    17    19 1   
    32    17    20 1   
    33    25    33 1   
    34    30    31 1   
    35    30    33 1   
    36    30    36 1   
@<TRIPOS>SUBSTRUCTURE
     1 75I         1 TEMP              0 ****  ****    0 ROOT
