@<TRIPOS>MOLECULE
75J
   57    61     1     0     0
SMALL
bcc


@<TRIPOS>ATOM
      1 C1          -5.5930     1.7900    -1.8930 ca         1 75J      -0.136000
      2 C2          -6.1420     1.3640    -0.6960 ca         1 75J      -0.086000
      3 C3          -4.2660     1.5020    -2.1760 ca         1 75J      -0.103000
      4 C4          -3.4850     0.7920    -1.2720 ca         1 75J      -0.115000
      5 C5          -4.0120     0.3550    -0.0670 ca         1 75J      -0.043300
      6 C6          -5.3540     0.6520     0.2070 ca         1 75J      -0.018000
      7 C11          0.6500    -1.4580    -0.2860 cc         1 75J       0.482800
      8 C12          0.4430    -0.2790     0.3780 cd         1 75J      -0.336200
      9 C13         -0.8320     0.1880     0.8290 c          1 75J       0.768100
     10 N15         -2.5760    -2.7430    -0.5150 nc         1 75J      -0.698000
     11 C16         -1.8890    -3.7330    -1.1740 cc         1 75J       0.322200
     12 C17         -0.5570    -3.4680    -1.2220 cd         1 75J      -0.233600
     13 C23          4.7660    -1.5040    -0.3090 c6         1 75J       0.210800
     14 C24          6.1520    -1.1370     0.2100 c6         1 75J       0.156500
     15 C26          5.7260     1.2300    -0.5660 c6         1 75J      -0.079400
     16 C27          4.3480     0.7850    -1.0220 c6         1 75J       0.195800
     17 C7          -3.2050    -0.4030     0.9570 c3         1 75J       0.147300
     18 N8          -1.8570    -0.7100     0.5310 n          1 75J      -0.443300
     19 C9          -1.6650    -1.8850    -0.1610 cd         1 75J       0.540400
     20 N10         -0.4190    -2.2650    -0.5600 na         1 75J      -0.213700
     21 N18          1.9320    -1.6540    -0.6100 nc         1 75J      -0.718000
     22 C19          2.5520    -0.5800    -0.1350 cd         1 75J       0.687400
     23 N20          1.7010     0.2760     0.4820 na         1 75J      -0.148900
     24 N22          3.8930    -0.3410    -0.1990 nh         1 75J      -0.769300
     25 C25          6.6990     0.0570    -0.5840 c6         1 75J      -0.118400
     26 N28          6.0850    -0.9340     1.6510 n8         1 75J      -0.879800
     27 C29          1.8210     2.6980     0.5300 c1         1 75J      -0.187100
     28 C30          1.6380     3.7290    -0.0610 c1         1 75J      -0.080100
     29 C31          1.4140     4.9760    -0.7730 c3         1 75J      -0.014000
     30 C32         -5.9370     0.2220     1.4380 cg         1 75J       0.233800
     31 N33         -6.4020    -0.1280     2.4320 n1         1 75J      -0.366800
     32 H1          -6.1970     2.3440    -2.5980 ha         1 75J       0.137000
     33 H2          -7.1740     1.5790    -0.4550 ha         1 75J       0.142000
     34 H3          -3.8290     1.8320    -3.1090 ha         1 75J       0.133000
     35 H4          -2.4550     0.5830    -1.5250 ha         1 75J       0.139000
     36 H5          -2.3990    -4.5900    -1.5840 h4         1 75J       0.044100
     37 H6           0.2820    -3.9910    -1.6450 h4         1 75J       0.195000
     38 H7           1.4970     1.4410     2.1830 h1         1 75J       0.090200
     39 H8           3.1160     1.3580     1.5180 h1         1 75J       0.090200
     40 H9           4.8350    -1.8500    -1.3480 h1         1 75J       0.063200
     41 H10          4.3550    -2.3190     0.2860 h1         1 75J       0.063200
     42 H11          6.8000    -1.9990     0.0280 h1         1 75J       0.068700
     43 H12          6.0770     2.0300    -1.2190 hc         1 75J       0.049200
     44 H13          5.6530     1.6560     0.4390 hc         1 75J       0.049200
     45 H14          3.6370     1.6070    -0.9580 h1         1 75J       0.050200
     46 H15          4.3840     0.4740    -2.0750 h1         1 75J       0.050200
     47 H16         -3.1470     0.1730     1.8800 h1         1 75J       0.091200
     48 H17         -3.7020    -1.3420     1.2030 h1         1 75J       0.091200
     49 H18          7.6710     0.3550    -0.1830 hc         1 75J       0.048200
     50 H19          6.8720    -0.2530    -1.6200 hc         1 75J       0.048200
     51 H20          6.9880    -0.6280     1.9940 hn         1 75J       0.341300
     52 H21          5.4390    -0.1820     1.8600 hn         1 75J       0.341300
     53 H23          1.4680     5.8260    -0.0930 hc         1 75J       0.057367
     54 H24          2.1610     5.1230    -1.5530 hc         1 75J       0.057367
     55 H25          0.4300     4.9860    -1.2430 hc         1 75J       0.057367
     56 O14         -1.0510     1.2360     1.4150 o          1 75J      -0.604500
     57 C21          2.0610     1.4530     1.2510 c3         1 75J       0.145400
@<TRIPOS>BOND
     1     1     2 ar  
     2     1     3 ar  
     3     1    32 1   
     4     2     6 ar  
     5     2    33 1   
     6     3     4 ar  
     7     3    34 1   
     8     4     5 ar  
     9     4    35 1   
    10     5     6 ar  
    11     5    17 1   
    12     6    30 1   
    13     7     8 2   
    14     7    20 1   
    15     7    21 1   
    16     8     9 1   
    17     8    23 1   
    18     9    18 1   
    19     9    56 2   
    20    10    11 1   
    21    10    19 2   
    22    11    12 2   
    23    11    36 1   
    24    12    20 1   
    25    12    37 1   
    26    13    14 1   
    27    13    24 1   
    28    13    40 1   
    29    13    41 1   
    30    14    25 1   
    31    14    26 1   
    32    14    42 1   
    33    15    16 1   
    34    15    25 1   
    35    15    43 1   
    36    15    44 1   
    37    16    24 1   
    38    16    45 1   
    39    16    46 1   
    40    17    18 1   
    41    17    47 1   
    42    17    48 1   
    43    18    19 1   
    44    19    20 1   
    45    21    22 2   
    46    22    23 1   
    47    22    24 1   
    48    23    57 1   
    49    25    49 1   
    50    25    50 1   
    51    26    51 1   
    52    26    52 1   
    53    27    28 3   
    54    27    57 1   
    55    28    29 1   
    56    29    53 1   
    57    29    54 1   
    58    29    55 1   
    59    30    31 3   
    60    38    57 1   
    61    39    57 1   
@<TRIPOS>SUBSTRUCTURE
     1 75J         1 TEMP              0 ****  ****    0 ROOT
