@<TRIPOS>MOLECULE
75J
   57    61     1     0     0
SMALL
No Charge or Current Charge


@<TRIPOS>ATOM
      1 C1          -5.1750     2.2590    -1.8240 ca         1 75J      -0.118000
      2 C2          -5.0790     2.4740    -0.4390 ca         1 75J      -0.068000
      3 C3          -4.7210     1.0530    -2.3770 ca         1 75J      -0.085000
      4 C4          -4.1700     0.0640    -1.5470 ca         1 75J      -0.097000
      5 C5          -4.0620     0.2650    -0.1540 ca         1 75J      -0.043300
      6 C6          -4.5270     1.4870     0.4030 ca         1 75J      -0.018000
      7 C11          0.7080    -1.6270    -0.4220 cc         1 75J       0.417500
      8 C12          0.3480    -0.5330     0.3130 cd         1 75J      -0.321600
      9 C13         -1.0310    -0.2030     0.7580 c          1 75J       0.625600
     10 N15         -2.4170    -3.1670    -0.8590 nc         1 75J      -0.698000
     11 C16         -1.5920    -4.0370    -1.5290 cc         1 75J       0.256900
     12 C17         -0.2840    -3.6280    -1.4870 cd         1 75J      -0.201000
     13 C23          4.8720    -1.4740    -0.2570 c6         1 75J       0.210800
     14 C24          6.2590    -1.0530     0.3390 c6         1 75J       0.156500
     15 C26          5.6890     1.3610    -0.3230 c6         1 75J      -0.079400
     16 C27          4.3350     0.8630    -0.8860 c6         1 75J       0.195800
     17 C7          -3.4350    -0.8540     0.6890 c3         1 75J       0.147300
     18 N8          -2.0160    -1.1120     0.3440 n          1 75J      -0.376300
     19 C9          -1.6320    -2.2080    -0.3920 cd         1 75J       0.540400
     20 N10         -0.3380    -2.4580    -0.7550 na         1 75J      -0.163000
     21 N18          2.0300    -1.7360    -0.7020 nc         1 75J      -0.718000
     22 C19          2.5230    -0.6520    -0.1410 cd         1 75J       0.687400
     23 N20          1.5630     0.1250     0.5100 na         1 75J      -0.127500
     24 N22          3.8810    -0.3560    -0.1650 nh         1 75J      -0.769300
     25 C25          6.7630     0.2370    -0.3590 c6         1 75J      -0.118400
     26 N28          6.1810    -0.8260     1.8050 n8         1 75J      -0.990200
     27 C29          1.3940     2.5730     0.5960 c1         1 75J      -0.187100
     28 C30          1.0460     3.5610    -0.0070 c1         1 75J      -0.080100
     29 C31          0.5970     4.7390    -0.7560 c3         1 75J      -0.014000
     30 C32         -4.4630     1.7600     1.8160 cg         1 75J       0.323000
     31 N33         -4.4270     1.9790     2.9630 n1         1 75J      -0.456000
     32 H1          -5.6020     3.0260    -2.4660 ha         1 75J       0.119000
     33 H2          -5.4380     3.4130    -0.0210 ha         1 75J       0.124000
     34 H3          -4.7950     0.8840    -3.4490 ha         1 75J       0.115000
     35 H4          -3.8220    -0.8660    -1.9910 ha         1 75J       0.121000
     36 H5          -2.0010    -4.9180    -2.0080 h4         1 75J       0.044100
     37 H6           0.6210    -4.0580    -1.8990 h4         1 75J       0.177000
     38 H7           1.2310     1.2710     2.2380 h1         1 75J       0.090200
     39 H8           2.8580     1.4130     1.5660 h1         1 75J       0.090200
     40 H9           5.0080    -1.7710    -1.3070 h1         1 75J       0.063200
     41 H10          4.5090    -2.3620     0.2820 h1         1 75J       0.063200
     42 H11          6.9910    -1.8570     0.1640 h1         1 75J       0.068700
     43 H12          6.0340     2.2250    -0.9070 hc         1 75J       0.049200
     44 H13          5.5490     1.7200     0.7050 hc         1 75J       0.049200
     45 H14          3.5950     1.6710    -0.8140 h1         1 75J       0.050200
     46 H15          4.4520     0.6380    -1.9570 h1         1 75J       0.050200
     47 H16         -3.4970    -0.6340     1.7620 h1         1 75J       0.091200
     48 H17         -4.0260    -1.7670     0.5420 h1         1 75J       0.091200
     49 H18          7.6970     0.5880     0.1020 hc         1 75J       0.048200
     50 H19          7.0080     0.0060    -1.4050 hc         1 75J       0.048200
     51 H20          6.9340    -0.1850     2.0740 hn         1 75J       0.396500
     52 H21          5.3290    -0.2770     1.9660 hn         1 75J       0.396500
     53 H23          0.7070     5.6430    -0.1460 hc         1 75J       0.057367
     54 H24          1.1910     4.8590    -1.6700 hc         1 75J       0.057367
     55 H25         -0.4580     4.6320    -1.0360 hc         1 75J       0.057367
     56 O14         -1.2910     0.7800     1.4340 o          1 75J      -0.529000
     57 C21          1.7950     1.3460     1.3010 c3         1 75J       0.174700
@<TRIPOS>BOND
     1     1     2 ar  
     2     1     3 ar  
     3     1    32 1   
     4     2     6 ar  
     5     2    33 1   
     6     3     4 ar  
     7     3    34 1   
     8     4     5 ar  
     9     4    35 1   
    10     5     6 ar  
    11     5    17 1   
    12     6    30 1   
    13     7     8 2   
    14     7    20 1   
    15     7    21 1   
    16     8     9 1   
    17     8    23 1   
    18     9    18 1   
    19     9    56 2   
    20    10    11 1   
    21    10    19 2   
    22    11    12 2   
    23    11    36 1   
    24    12    20 1   
    25    12    37 1   
    26    13    14 1   
    27    13    24 1   
    28    13    40 1   
    29    13    41 1   
    30    14    25 1   
    31    14    26 1   
    32    14    42 1   
    33    15    16 1   
    34    15    25 1   
    35    15    43 1   
    36    15    44 1   
    37    16    24 1   
    38    16    45 1   
    39    16    46 1   
    40    17    18 1   
    41    17    47 1   
    42    17    48 1   
    43    18    19 1   
    44    19    20 1   
    45    21    22 2   
    46    22    23 1   
    47    22    24 1   
    48    23    57 1   
    49    25    49 1   
    50    25    50 1   
    51    26    51 1   
    52    26    52 1   
    53    27    28 3   
    54    27    57 1   
    55    28    29 1   
    56    29    53 1   
    57    29    54 1   
    58    29    55 1   
    59    30    31 3   
    60    38    57 1   
    61    39    57 1   
@<TRIPOS>SUBSTRUCTURE
     1 75J         1 TEMP              0 ****  ****    0 ROOT
