@<TRIPOS>MOLECULE
75K
   19    20     1     0     0
SMALL
abcg2


@<TRIPOS>ATOM
      1 C1          11.0710    63.5760    21.6500 c3         1 75K      -0.119400
      2 C2          11.8850    63.1000    22.7860 cc         1 75K       0.447300
      3 N3          11.6500    62.1580    23.6350 nd         1 75K      -0.602000
      4 C4          12.7590    62.1500    24.4750 cd         1 75K       0.110500
      5 C5          13.0540    61.3220    25.5970 c          1 75K       0.613600
      6 O6          12.4120    60.4230    26.0920 o          1 75K      -0.450000
      7 O7          14.2880    61.6330    26.1830 os         1 75K      -0.365200
      8 C8          15.1490    62.6020    25.7670 cd         1 75K       0.178900
      9 C9          16.3710    62.6680    26.6060 c3         1 75K      -0.057900
     10 C10         14.8710    63.3890    24.6980 cc         1 75K      -0.399800
     11 C11         13.6390    63.1220    24.0730 cc         1 75K       0.268800
     12 O12         13.1000    63.7410    22.9980 os         1 75K      -0.266000
     13 H11C        10.1490    63.0020    21.6020 hc         1 75K       0.070367
     14 H12C        10.8350    64.6350    21.7690 hc         1 75K       0.070367
     15 H13C        11.6210    63.4580    20.7140 hc         1 75K       0.070367
     16 H91C        16.8970    61.7110    26.5820 hc         1 75K       0.069700
     17 H92C        17.0350    63.4510    26.2470 hc         1 75K       0.069700
     18 H93C        16.1040    62.8730    27.6450 hc         1 75K       0.069700
     19 H10         15.5530    64.1570    24.3680 ha         1 75K       0.222000
@<TRIPOS>BOND
     1     1     2 1   
     2     1    13 1   
     3     1    14 1   
     4     1    15 1   
     5     2     3 2   
     6     2    12 1   
     7     3     4 1   
     8     4     5 1   
     9     4    11 2   
    10     5     6 2   
    11     5     7 1   
    12     7     8 1   
    13     8     9 1   
    14     8    10 2   
    15     9    16 1   
    16     9    17 1   
    17     9    18 1   
    18    10    11 1   
    19    10    19 1   
    20    11    12 1   
@<TRIPOS>SUBSTRUCTURE
     1 75K         1 TEMP              0 ****  ****    0 ROOT
