@<TRIPOS>MOLECULE
75K
   19    20     1     0     0
SMALL
No Charge or Current Charge


@<TRIPOS>ATOM
      1 C1          11.0820    63.6070    21.6260 c3         1 75K      -0.119400
      2 C2          11.9250    63.1370    22.7700 cc         1 75K       0.447300
      3 N3          11.6250    62.1560    23.6160 nd         1 75K      -0.602000
      4 C4          12.7260    62.1290    24.4700 cd         1 75K       0.110500
      5 C5          13.0900    61.2980    25.6500 c          1 75K       0.613600
      6 O6          12.3520    60.4120    26.0650 o          1 75K      -0.450000
      7 O7          14.3020    61.5450    26.2860 os         1 75K      -0.365200
      8 C8          15.1370    62.5470    25.8180 cd         1 75K       0.178900
      9 C9          16.4080    62.6950    26.6060 c3         1 75K      -0.057900
     10 C10         14.8080    63.3210    24.7260 cc         1 75K      -0.399800
     11 C11         13.5850    63.0820    24.0710 cc         1 75K       0.268800
     12 O12         13.1240    63.7530    22.9940 os         1 75K      -0.266000
     13 H11C        10.1470    63.0380    21.5660 hc         1 75K       0.070367
     14 H12C        10.8300    64.6660    21.7440 hc         1 75K       0.070367
     15 H13C        11.6170    63.4840    20.6780 hc         1 75K       0.070367
     16 H91C        16.9900    61.7670    26.5860 hc         1 75K       0.069700
     17 H92C        17.0400    63.4950    26.2040 hc         1 75K       0.069700
     18 H93C        16.1910    62.9340    27.6530 hc         1 75K       0.069700
     19 H10         15.4630    64.1060    24.3580 ha         1 75K       0.222000
@<TRIPOS>BOND
     1     1     2 1   
     2     1    13 1   
     3     1    14 1   
     4     1    15 1   
     5     2     3 2   
     6     2    12 1   
     7     3     4 1   
     8     4     5 1   
     9     4    11 2   
    10     5     6 2   
    11     5     7 1   
    12     7     8 1   
    13     8     9 1   
    14     8    10 2   
    15     9    16 1   
    16     9    17 1   
    17     9    18 1   
    18    10    11 1   
    19    10    19 1   
    20    11    12 1   
@<TRIPOS>SUBSTRUCTURE
     1 75K         1 TEMP              0 ****  ****    0 ROOT
