@<TRIPOS>MOLECULE
75L
   68    73     1     0     0
SMALL
No Charge or Current Charge


@<TRIPOS>ATOM
      1 C2          -0.9290    -1.8980     0.2820 cc         1 75L       0.916100
      2 C4           1.3040    -1.2440    -0.2110 cc         1 75L       0.519900
      3 N1          -0.9210    -1.1440     1.3470 nd         1 75L      -0.798100
      4 C12         -2.0850    -3.5990    -1.1050 c6         1 75L       0.234800
      5 C13         -1.2210    -3.0930    -2.2630 c6         1 75L      -0.118400
      6 C14          0.2030    -2.8350    -1.7560 c6         1 75L       0.228800
      7 C16          2.6080     2.4000     1.8470 c1         1 75L      -0.172100
      8 C17          2.2160     3.5360     1.7100 c1         1 75L      -0.095100
      9 C18          1.7230     4.9030     1.5140 c3         1 75L      -0.010000
     10 N3           0.1890    -1.9780    -0.5490 na         1 75L      -0.721300
     11 C20          5.3370    -1.0800    -1.2530 c6         1 75L       0.210800
     12 C22          7.2660     0.5900    -1.3480 c6         1 75L      -0.117400
     13 C23          6.3500     1.6210    -0.6300 c6         1 75L      -0.080400
     14 C6           0.1340    -0.3780     1.7450 c          1 75L       0.777100
     15 C5           1.2730    -0.4670     0.8850 cd         1 75L      -0.330600
     16 N7           2.4760    -1.2240    -0.8840 nc         1 75L      -0.752000
     17 C8           3.1990    -0.3750    -0.1870 cd         1 75L       0.676400
     18 N9           2.5340     0.1240     0.9270 na         1 75L      -0.135500
     19 O10          0.0660     0.2980     2.7570 o          1 75L      -0.579100
     20 N11         -2.0690    -2.6140    -0.0020 nh         1 75L      -0.741600
     21 N19          4.5150    -0.0710    -0.5140 nh         1 75L      -0.765300
     22 C21          6.8680    -0.8670    -0.9930 c6         1 75L       0.155500
     23 C24          4.8530     1.3260    -0.8960 c6         1 75L       0.193800
     24 N25          7.2300    -1.1500     0.4190 n8         1 75L      -0.989200
     25 C26         -3.3720    -2.3240     0.6570 c3         1 75L       0.206500
     26 C27         -4.0820    -1.0790     0.1240 ca         1 75L       0.132300
     27 N28         -4.1360    -0.0040     0.9400 nb         1 75L      -0.156000
     28 C29         -5.2060    -0.0540    -1.6040 ca         1 75L       0.162300
     29 N30         -4.5920    -1.1540    -1.1240 nb         1 75L      -0.203000
     30 C31         -5.3110     1.1250    -0.8260 ca         1 75L      -0.142000
     31 C32         -4.7480     1.1050     0.4750 ca         1 75L       0.039000
     32 C33         -4.8330     2.2590     1.2760 ca         1 75L      -0.086000
     33 C34         -5.4660     3.4190     0.7990 ca         1 75L      -0.089000
     34 C35         -6.0230     3.4340    -0.4890 ca         1 75L      -0.115000
     35 C36         -5.9480     2.2920    -1.3030 ca         1 75L      -0.075000
     36 C37         -5.7650    -0.1700    -3.0160 c3         1 75L      -0.155400
     37 H1          -3.1090    -3.7690    -1.4690 h1         1 75L       0.052200
     38 H2          -1.6970    -4.5650    -0.7490 h1         1 75L       0.052200
     39 H3          -1.2060    -3.8290    -3.0770 hc         1 75L       0.069200
     40 H4          -1.6490    -2.1680    -2.6710 hc         1 75L       0.069200
     41 H5           0.6880    -3.7920    -1.5110 h1         1 75L       0.068200
     42 H6           0.7880    -2.3610    -2.5580 h1         1 75L       0.068200
     43 H7           4.1690     0.9930     1.9340 h1         1 75L       0.086700
     44 H8           2.7740     0.6210     2.9530 h1         1 75L       0.086700
     45 H9           1.9480     5.5180     2.3930 hc         1 75L       0.054033
     46 H10          2.1990     5.3580     0.6380 hc         1 75L       0.054033
     47 H11          0.6380     4.8970     1.3590 hc         1 75L       0.054033
     48 H12          5.0650    -2.1020    -0.9500 h1         1 75L       0.060200
     49 H13          5.1430    -1.0030    -2.3330 h1         1 75L       0.060200
     50 H14          7.1820     0.7290    -2.4350 hc         1 75L       0.045700
     51 H15          8.3190     0.7770    -1.0970 hc         1 75L       0.045700
     52 H16          6.5390     1.6100     0.4520 hc         1 75L       0.048200
     53 H17          6.5910     2.6360    -0.9740 hc         1 75L       0.048200
     54 H18          7.4460    -1.5550    -1.6290 h1         1 75L       0.064700
     55 H19          4.2390     2.0510    -0.3480 h1         1 75L       0.048700
     56 H20          4.6410     1.4780    -1.9650 h1         1 75L       0.048700
     57 H21          8.0800    -0.6230     0.6460 hn         1 75L       0.396500
     58 H22          6.5100    -0.7030     0.9970 hn         1 75L       0.396500
     59 H24         -4.0530    -3.1780     0.5340 h1         1 75L       0.082700
     60 H25         -3.2330    -2.2200     1.7420 h1         1 75L       0.082700
     61 H26         -4.4030     2.2560     2.2760 ha         1 75L       0.136000
     62 H27         -5.5250     4.3040     1.4280 ha         1 75L       0.117000
     63 H28         -6.5140     4.3330    -0.8580 ha         1 75L       0.116000
     64 H29         -6.3860     2.3280    -2.2970 ha         1 75L       0.115000
     65 H30         -5.3050     0.5700    -3.6810 hc         1 75L       0.056700
     66 H31         -5.5810    -1.1600    -3.4490 hc         1 75L       0.056700
     67 H32         -6.8490    -0.0050    -3.0220 hc         1 75L       0.056700
     68 C15          3.0730     1.0110     1.9720 c3         1 75L       0.176700
@<TRIPOS>BOND
     1     1     3 2   
     2     1    10 1   
     3     1    20 1   
     4     2    10 1   
     5     2    15 2   
     6     2    16 1   
     7     3    14 1   
     8     4     5 1   
     9     4    20 1   
    10     4    37 1   
    11     4    38 1   
    12     5     6 1   
    13     5    39 1   
    14     5    40 1   
    15     6    10 1   
    16     6    41 1   
    17     6    42 1   
    18     7     8 3   
    19     7    68 1   
    20     8     9 1   
    21     9    45 1   
    22     9    46 1   
    23     9    47 1   
    24    11    21 1   
    25    11    22 1   
    26    11    48 1   
    27    11    49 1   
    28    12    13 1   
    29    12    22 1   
    30    12    50 1   
    31    12    51 1   
    32    13    23 1   
    33    13    52 1   
    34    13    53 1   
    35    14    15 1   
    36    14    19 2   
    37    15    18 1   
    38    16    17 2   
    39    17    18 1   
    40    17    21 1   
    41    18    68 1   
    42    20    25 1   
    43    21    23 1   
    44    22    24 1   
    45    22    54 1   
    46    23    55 1   
    47    23    56 1   
    48    24    57 1   
    49    24    58 1   
    50    25    26 1   
    51    25    59 1   
    52    25    60 1   
    53    26    27 ar  
    54    26    29 ar  
    55    27    31 ar  
    56    28    29 ar  
    57    28    30 ar  
    58    28    36 1   
    59    30    31 ar  
    60    30    35 ar  
    61    31    32 ar  
    62    32    33 ar  
    63    32    61 1   
    64    33    34 ar  
    65    33    62 1   
    66    34    35 ar  
    67    34    63 1   
    68    35    64 1   
    69    36    65 1   
    70    36    66 1   
    71    36    67 1   
    72    43    68 1   
    73    44    68 1   
@<TRIPOS>SUBSTRUCTURE
     1 75L         1 TEMP              0 ****  ****    0 ROOT
