@<TRIPOS>MOLECULE
75L
   68    73     1     0     0
SMALL
bcc


@<TRIPOS>ATOM
      1 C2          -0.9670    -1.8400     0.2670 cc         1 75L       0.916100
      2 C4           1.2280    -1.2930    -0.2350 cc         1 75L       0.585200
      3 N1          -1.0330    -0.9110     1.1910 nd         1 75L      -0.798100
      4 C12         -2.1840    -3.5490    -1.0380 c6         1 75L       0.234800
      5 C13         -1.2050    -3.2220    -2.1400 c6         1 75L      -0.118400
      6 C14          0.1800    -3.0840    -1.5530 c6         1 75L       0.228800
      7 C16          2.5950     2.5670     1.3530 c1         1 75L      -0.172100
      8 C17          2.3050     3.7040     1.0890 c1         1 75L      -0.095100
      9 C18          1.9440     5.0740     0.7630 c3         1 75L      -0.010000
     10 N3           0.1400    -2.0780    -0.4980 na         1 75L      -0.721300
     11 C20          5.2110    -1.1560    -1.2230 c6         1 75L       0.210800
     12 C22          7.1140     0.4530    -1.4200 c6         1 75L      -0.117400
     13 C23          6.2330     1.5300    -0.7970 c6         1 75L      -0.080400
     14 C6           0.0110    -0.0890     1.5110 c          1 75L       0.777100
     15 C5           1.1880    -0.3290     0.7310 cd         1 75L      -0.345200
     16 N7           2.4180    -1.3430    -0.8620 nc         1 75L      -0.752000
     17 C8           3.1390    -0.4020    -0.2700 cd         1 75L       0.676400
     18 N9           2.4510     0.2340     0.7100 na         1 75L      -0.156900
     19 O10         -0.0790     0.7640     2.3940 o          1 75L      -0.579100
     20 N11         -2.0540    -2.6170     0.0730 nh         1 75L      -0.741600
     21 N19          4.4460    -0.1140    -0.5490 nh         1 75L      -0.765300
     22 C21          6.6970    -0.9470    -0.9550 c6         1 75L       0.155500
     23 C24          4.7670     1.2260    -1.0480 c6         1 75L       0.193800
     24 N25          6.9750    -1.2330     0.4470 n8         1 75L      -0.878800
     25 C26         -3.2450    -2.3010     0.8200 c3         1 75L       0.206500
     26 C27         -3.9060    -1.0250     0.3550 ca         1 75L       0.658300
     27 N28         -4.6810    -0.4090     1.1980 nb         1 75L      -0.682000
     28 C29         -4.2310     0.4240    -1.3790 ca         1 75L       0.490600
     29 N30         -3.6620    -0.6600    -0.9220 nb         1 75L      -0.729000
     30 C31         -5.0960     1.1950    -0.5530 ca         1 75L      -0.272600
     31 C32         -5.2960     0.7160     0.7590 ca         1 75L       0.432600
     32 C33         -6.1490     1.4270     1.6310 ca         1 75L      -0.169300
     33 C34         -6.7720     2.5670     1.1970 ca         1 75L      -0.107000
     34 C35         -6.5710     3.0460    -0.1130 ca         1 75L      -0.133000
     35 C36         -5.7470     2.3730    -0.9750 ca         1 75L      -0.093000
     36 C37         -3.9490     0.8220    -2.7910 c3         1 75L      -0.155400
     37 H1          -3.2030    -3.4860    -1.4170 h1         1 75L       0.052200
     38 H2          -2.0300    -4.5730    -0.6830 h1         1 75L       0.052200
     39 H3          -1.2120    -4.0150    -2.8870 hc         1 75L       0.069200
     40 H4          -1.4960    -2.2920    -2.6320 hc         1 75L       0.069200
     41 H5           0.5280    -4.0340    -1.1420 h1         1 75L       0.068200
     42 H6           0.9010    -2.7590    -2.3000 h1         1 75L       0.068200
     43 H7           4.0550     1.0840     1.6900 h1         1 75L       0.086700
     44 H8           2.6030     0.9190     2.6550 h1         1 75L       0.086700
     45 H9           2.5320     5.7820     1.3490 hc         1 75L       0.054033
     46 H10          2.1240     5.2850    -0.2910 hc         1 75L       0.054033
     47 H11          0.8910     5.2630     0.9690 hc         1 75L       0.054033
     48 H12          4.9020    -2.1290    -0.8440 h1         1 75L       0.060200
     49 H13          5.0240    -1.1450    -2.3050 h1         1 75L       0.060200
     50 H14          7.0300     0.5080    -2.5100 hc         1 75L       0.045700
     51 H15          8.1660     0.6260    -1.1780 hc         1 75L       0.045700
     52 H16          6.4100     1.6000     0.2800 hc         1 75L       0.048200
     53 H17          6.4730     2.5080    -1.2180 hc         1 75L       0.048200
     54 H18          7.2370    -1.6860    -1.5550 h1         1 75L       0.064700
     55 H19          4.1340     1.9700    -0.5650 h1         1 75L       0.048700
     56 H20          4.5520     1.2800    -2.1250 h1         1 75L       0.048700
     57 H21          7.9430    -1.0120     0.6520 hn         1 75L       0.341300
     58 H22          6.4220    -0.6210     1.0350 hn         1 75L       0.341300
     59 H24         -3.9450    -3.1290     0.6890 h1         1 75L       0.082700
     60 H25         -3.0370    -2.2300     1.8860 h1         1 75L       0.082700
     61 H26         -6.2970     1.0530     2.6360 ha         1 75L       0.154000
     62 H27         -7.4280     3.1080     1.8650 ha         1 75L       0.135000
     63 H28         -7.0710     3.9500    -0.4340 ha         1 75L       0.134000
     64 H29         -5.5970     2.7450    -1.9800 ha         1 75L       0.133000
     65 H30         -3.5370     1.8310    -2.8400 hc         1 75L       0.056700
     66 H31         -3.2380     0.1330    -3.2390 hc         1 75L       0.056700
     67 H32         -4.8620     0.8200    -3.3880 hc         1 75L       0.056700
     68 C15          2.9690     1.1910     1.6660 c3         1 75L       0.147400
@<TRIPOS>BOND
     1     1     3 2   
     2     1    10 1   
     3     1    20 1   
     4     2    10 1   
     5     2    15 2   
     6     2    16 1   
     7     3    14 1   
     8     4     5 1   
     9     4    20 1   
    10     4    37 1   
    11     4    38 1   
    12     5     6 1   
    13     5    39 1   
    14     5    40 1   
    15     6    10 1   
    16     6    41 1   
    17     6    42 1   
    18     7     8 3   
    19     7    68 1   
    20     8     9 1   
    21     9    45 1   
    22     9    46 1   
    23     9    47 1   
    24    11    21 1   
    25    11    22 1   
    26    11    48 1   
    27    11    49 1   
    28    12    13 1   
    29    12    22 1   
    30    12    50 1   
    31    12    51 1   
    32    13    23 1   
    33    13    52 1   
    34    13    53 1   
    35    14    15 1   
    36    14    19 2   
    37    15    18 1   
    38    16    17 2   
    39    17    18 1   
    40    17    21 1   
    41    18    68 1   
    42    20    25 1   
    43    21    23 1   
    44    22    24 1   
    45    22    54 1   
    46    23    55 1   
    47    23    56 1   
    48    24    57 1   
    49    24    58 1   
    50    25    26 1   
    51    25    59 1   
    52    25    60 1   
    53    26    27 ar  
    54    26    29 ar  
    55    27    31 ar  
    56    28    29 ar  
    57    28    30 ar  
    58    28    36 1   
    59    30    31 ar  
    60    30    35 ar  
    61    31    32 ar  
    62    32    33 ar  
    63    32    61 1   
    64    33    34 ar  
    65    33    62 1   
    66    34    35 ar  
    67    34    63 1   
    68    35    64 1   
    69    36    65 1   
    70    36    66 1   
    71    36    67 1   
    72    43    68 1   
    73    44    68 1   
@<TRIPOS>SUBSTRUCTURE
     1 75L         1 TEMP              0 ****  ****    0 ROOT
