@<TRIPOS>MOLECULE
75M
   57    61     1     0     0
SMALL
abcg2


@<TRIPOS>ATOM
      1 C4           0.7790    -1.6000    -0.1940 cc         1 75M       0.417500
      2 C2          -0.7040    -0.2880     1.2930 c          1 75M       0.628600
      3 N1          -1.6450    -1.2850     1.0470 n          1 75M      -0.375300
      4 C6           2.5500    -0.4710    -0.2430 cd         1 75M       0.687400
      5 C3           0.5340    -0.5270     0.6170 cd         1 75M      -0.318600
      6 N5           2.0030    -1.5790    -0.7310 nc         1 75M      -0.721000
      7 N7           1.7110     0.1940     0.5900 na         1 75M      -0.129500
      8 N8          -0.2060    -2.5270    -0.3880 na         1 75M      -0.161000
      9 C9          -1.4130    -2.3620     0.2230 cc         1 75M       0.548400
     10 N10         -2.2440    -3.3210    -0.0760 nd         1 75M      -0.716000
     11 C11         -1.5420    -4.1470    -0.9190 cd         1 75M       0.255900
     12 C12         -0.2820    -3.6860    -1.1340 cc         1 75M      -0.200000
     13 O13         -0.9530     0.6620     2.0190 o          1 75M      -0.539000
     14 C14          2.0330     1.3440     1.4140 c3         1 75M       0.176700
     15 C15          1.4920     2.5910     0.8840 c1         1 75M      -0.189100
     16 C16          1.0600     3.6240     0.4480 c1         1 75M      -0.077100
     17 C17          0.5300     4.8720    -0.0770 c3         1 75M      -0.014000
     18 N18          3.8220    -0.0440    -0.4900 nh         1 75M      -0.762300
     19 C19          4.7640    -1.0620    -0.9440 c6         1 75M       0.208800
     20 C20          6.1860    -0.6000    -0.6500 c6         1 75M       0.157500
     21 C21          6.4410     0.7420    -1.3480 c6         1 75M      -0.118400
     22 C22          5.3860     1.7750    -0.9690 c6         1 75M      -0.079400
     23 C23          3.9890     1.2290    -1.2020 c6         1 75M       0.191800
     24 N24          6.4040    -0.5950     0.7890 n8         1 75M      -0.988200
     25 C25         -2.9710    -1.1530     1.6480 c3         1 75M       0.154300
     26 C26         -3.8600    -0.2420     0.8420 ca         1 75M      -0.093300
     27 C27         -4.4550    -0.7040    -0.3310 ca         1 75M      -0.089500
     28 C28         -5.2570     0.1280    -1.0900 ca         1 75M      -0.081500
     29 C29         -5.4750     1.4400    -0.6710 ca         1 75M      -0.014000
     30 C30         -4.8940     1.9120     0.5050 ca         1 75M      -0.081500
     31 C31         -4.0890     1.0690     1.2520 ca         1 75M      -0.089500
     32 C32         -6.3040     2.3050    -1.4480 cg         1 75M       0.325000
     33 N33         -6.9730     3.0030    -2.0750 n1         1 75M      -0.458000
     34 H1          -1.9900    -5.0370    -1.3300 h4         1 75M       0.043100
     35 H2           0.5440    -4.0460    -1.7200 h4         1 75M       0.178000
     36 H3           1.6560     1.1630     2.4200 h1         1 75M       0.089200
     37 H4           3.1200     1.3960     1.4910 h1         1 75M       0.089200
     38 H5           0.5300     5.6460     0.6910 hc         1 75M       0.058033
     39 H6           1.1280     5.2310    -0.9140 hc         1 75M       0.058033
     40 H7          -0.4950     4.7460    -0.4250 hc         1 75M       0.058033
     41 H8           4.5620    -1.9960    -0.4210 h1         1 75M       0.063700
     42 H9           4.6480    -1.2480    -2.0190 h1         1 75M       0.063700
     43 H10          6.8570    -1.3480    -1.0810 h1         1 75M       0.068700
     44 H11          7.4420     1.1060    -1.1030 hc         1 75M       0.048200
     45 H12          6.4200     0.5890    -2.4320 hc         1 75M       0.048200
     46 H13          5.4910     2.0700     0.0790 hc         1 75M       0.049700
     47 H14          5.5130     2.6830    -1.5630 hc         1 75M       0.049700
     48 H15          3.8240     1.0690    -2.2770 h1         1 75M       0.050200
     49 H16          3.2390     1.9460    -0.8700 h1         1 75M       0.050200
     50 H17          7.3350    -0.2470     0.9880 hn         1 75M       0.397000
     51 H18          5.7670     0.0560     1.2320 hn         1 75M       0.397000
     52 H20         -3.4020    -2.1500     1.7130 h1         1 75M       0.081700
     53 H21         -2.8540    -0.7800     2.6630 h1         1 75M       0.081700
     54 H22         -4.2920    -1.7250    -0.6500 ha         1 75M       0.136000
     55 H23         -5.7170    -0.2360    -1.9990 ha         1 75M       0.125500
     56 H24         -5.0680     2.9290     0.8280 ha         1 75M       0.125500
     57 H25         -3.6330     1.4350     2.1610 ha         1 75M       0.136000
@<TRIPOS>BOND
     1     1     5 2   
     2     1     6 1   
     3     1     8 1   
     4     2     3 1   
     5     2     5 1   
     6     2    13 2   
     7     3     9 1   
     8     3    25 1   
     9     4     6 2   
    10     4     7 1   
    11     4    18 1   
    12     5     7 1   
    13     7    14 1   
    14     8     9 1   
    15     8    12 1   
    16     9    10 2   
    17    10    11 1   
    18    11    12 2   
    19    11    34 1   
    20    12    35 1   
    21    14    15 1   
    22    14    36 1   
    23    14    37 1   
    24    15    16 3   
    25    16    17 1   
    26    17    38 1   
    27    17    39 1   
    28    17    40 1   
    29    18    19 1   
    30    18    23 1   
    31    19    20 1   
    32    19    41 1   
    33    19    42 1   
    34    20    21 1   
    35    20    24 1   
    36    20    43 1   
    37    21    22 1   
    38    21    44 1   
    39    21    45 1   
    40    22    23 1   
    41    22    46 1   
    42    22    47 1   
    43    23    48 1   
    44    23    49 1   
    45    24    50 1   
    46    24    51 1   
    47    25    26 1   
    48    25    52 1   
    49    25    53 1   
    50    26    27 ar  
    51    26    31 ar  
    52    27    28 ar  
    53    27    54 1   
    54    28    29 ar  
    55    28    55 1   
    56    29    30 ar  
    57    29    32 1   
    58    30    31 ar  
    59    30    56 1   
    60    31    57 1   
    61    32    33 3   
@<TRIPOS>SUBSTRUCTURE
     1 75M         1 TEMP              0 ****  ****    0 ROOT
