@<TRIPOS>MOLECULE
75M
   57    61     1     0     0
SMALL
No Charge or Current Charge


@<TRIPOS>ATOM
      1 C4           0.8120    -1.6010    -0.2450 cc         1 75M       0.417500
      2 C2          -0.7300    -0.3590     1.3320 c          1 75M       0.628600
      3 N1          -1.7150    -1.3140     1.0510 n          1 75M      -0.375300
      4 C6           2.5850    -0.5080    -0.2770 cd         1 75M       0.687400
      5 C3           0.5450    -0.5680     0.6070 cd         1 75M      -0.318600
      6 N5           2.0560    -1.6000    -0.7890 nc         1 75M      -0.721000
      7 N7           1.7320     0.1670     0.5970 na         1 75M      -0.129500
      8 N8          -0.2190    -2.5070    -0.4100 na         1 75M      -0.161000
      9 C9          -1.4240    -2.3440     0.1840 cc         1 75M       0.548400
     10 N10         -2.2180    -3.3270    -0.2090 nd         1 75M      -0.716000
     11 C11         -1.4580    -4.0970    -1.0960 cd         1 75M       0.255900
     12 C12         -0.1850    -3.5870    -1.2470 cc         1 75M      -0.200000
     13 O13         -0.9080     0.5660     2.1090 o          1 75M      -0.539000
     14 C14          2.0430     1.3670     1.3930 c3         1 75M       0.176700
     15 C15          1.4360     2.5910     0.8500 c1         1 75M      -0.189100
     16 C16          0.9180     3.5780     0.3810 c1         1 75M      -0.077100
     17 C17          0.2620     4.7510    -0.2030 c3         1 75M      -0.014000
     18 N18          3.8900    -0.1160    -0.5530 nh         1 75M      -0.762300
     19 C19          4.9080    -1.1560    -0.9020 c6         1 75M       0.208800
     20 C20          6.3580    -0.6650    -0.5680 c6         1 75M       0.157500
     21 C21          6.6330     0.6880    -1.2760 c6         1 75M      -0.118400
     22 C22          5.5220     1.7300    -0.9650 c6         1 75M      -0.079400
     23 C23          4.1150     1.1630    -1.2780 c6         1 75M       0.191800
     24 N24          6.5610    -0.5100     0.8950 n8         1 75M      -0.988200
     25 C25         -3.0550    -1.1710     1.6620 c3         1 75M       0.154300
     26 C26         -3.9570    -0.2180     0.8860 ca         1 75M      -0.093300
     27 C27         -4.6610    -0.6720    -0.2460 ca         1 75M      -0.089500
     28 C28         -5.4850     0.2070    -0.9710 ca         1 75M      -0.081500
     29 C29         -5.6130     1.5510    -0.5690 ca         1 75M      -0.014000
     30 C30         -4.9100     2.0070     0.5620 ca         1 75M      -0.081500
     31 C31         -4.0870     1.1270     1.2860 ca         1 75M      -0.089500
     32 C32         -6.4540     2.4510    -1.3100 cg         1 75M       0.325000
     33 N33         -7.1410     3.1860    -1.9040 n1         1 75M      -0.458000
     34 H1          -1.8730    -4.9740    -1.5790 h4         1 75M       0.043100
     35 H2           0.6670    -3.8940    -1.8410 h4         1 75M       0.178000
     36 H3           1.6820     1.2120     2.4170 h1         1 75M       0.089200
     37 H4           3.1310     1.4970     1.4480 h1         1 75M       0.089200
     38 H5           0.4320     5.6340     0.4240 hc         1 75M       0.058033
     39 H6           0.6600     4.9510    -1.2050 hc         1 75M       0.058033
     40 H7          -0.8190     4.5820    -0.2840 hc         1 75M       0.058033
     41 H8           4.7150    -2.0900    -0.3540 h1         1 75M       0.063700
     42 H9           4.8480    -1.3960    -1.9740 h1         1 75M       0.063700
     43 H10          7.0870    -1.4070    -0.9300 h1         1 75M       0.068700
     44 H11          7.6170     1.0830    -0.9890 hc         1 75M       0.048200
     45 H12          6.6770     0.5210    -2.3620 hc         1 75M       0.048200
     46 H13          5.5690     2.0320     0.0900 hc         1 75M       0.049700
     47 H14          5.6910     2.6410    -1.5540 hc         1 75M       0.049700
     48 H15          4.0280     0.9940    -2.3620 h1         1 75M       0.050200
     49 H16          3.3570     1.9130    -1.0140 h1         1 75M       0.050200
     50 H17          7.3160     0.1670     1.0470 hn         1 75M       0.397000
     51 H18          5.7300    -0.0270     1.2530 hn         1 75M       0.397000
     52 H20         -3.5390    -2.1540     1.7220 h1         1 75M       0.081700
     53 H21         -2.9510    -0.8190     2.6970 h1         1 75M       0.081700
     54 H22         -4.5690    -1.7070    -0.5680 ha         1 75M       0.136000
     55 H23         -6.0230    -0.1580    -1.8440 ha         1 75M       0.125500
     56 H24         -4.9990     3.0440     0.8820 ha         1 75M       0.125500
     57 H25         -3.5460     1.4940     2.1560 ha         1 75M       0.136000
@<TRIPOS>BOND
     1     1     5 2   
     2     1     6 1   
     3     1     8 1   
     4     2     3 1   
     5     2     5 1   
     6     2    13 2   
     7     3     9 1   
     8     3    25 1   
     9     4     6 2   
    10     4     7 1   
    11     4    18 1   
    12     5     7 1   
    13     7    14 1   
    14     8     9 1   
    15     8    12 1   
    16     9    10 2   
    17    10    11 1   
    18    11    12 2   
    19    11    34 1   
    20    12    35 1   
    21    14    15 1   
    22    14    36 1   
    23    14    37 1   
    24    15    16 3   
    25    16    17 1   
    26    17    38 1   
    27    17    39 1   
    28    17    40 1   
    29    18    19 1   
    30    18    23 1   
    31    19    20 1   
    32    19    41 1   
    33    19    42 1   
    34    20    21 1   
    35    20    24 1   
    36    20    43 1   
    37    21    22 1   
    38    21    44 1   
    39    21    45 1   
    40    22    23 1   
    41    22    46 1   
    42    22    47 1   
    43    23    48 1   
    44    23    49 1   
    45    24    50 1   
    46    24    51 1   
    47    25    26 1   
    48    25    52 1   
    49    25    53 1   
    50    26    27 ar  
    51    26    31 ar  
    52    27    28 ar  
    53    27    54 1   
    54    28    29 ar  
    55    28    55 1   
    56    29    30 ar  
    57    29    32 1   
    58    30    31 ar  
    59    30    56 1   
    60    31    57 1   
    61    32    33 3   
@<TRIPOS>SUBSTRUCTURE
     1 75M         1 TEMP              0 ****  ****    0 ROOT
