@<TRIPOS>MOLECULE
75N
   63    68     1     0     0
SMALL
No Charge or Current Charge


@<TRIPOS>ATOM
      1 C1           1.0230     3.3730    -0.2280 c1         1 75N      -0.082100
      2 C2           1.6310     2.5270     0.3860 c1         1 75N      -0.183100
      3 C3          -6.4720     3.0660    -0.6260 ca         1 75N      -0.116000
      4 C4          -6.2010     3.3410     0.7230 ca         1 75N      -0.090000
      5 C5          -5.9060     1.9380    -1.2430 ca         1 75N      -0.075000
      6 C6          -5.3620     2.4870     1.4590 ca         1 75N      -0.088000
      7 C7          -5.0620     1.0780    -0.5060 ca         1 75N      -0.143000
      8 C8          -4.7860     1.3520     0.8580 ca         1 75N       0.036000
      9 C9           1.0370    -0.6770     0.6360 cc         1 75N      -0.311600
     10 C10         -4.4640    -0.0720    -1.0780 ca         1 75N       0.162300
     11 C11          1.3920    -1.8040    -0.0400 cd         1 75N       0.415500
     12 C12         -3.4530    -0.5310     0.9380 ca         1 75N       0.132300
     13 C13          3.0960    -0.5790    -0.2320 cc         1 75N       0.677400
     14 C14         -0.2700    -0.4870     1.3040 c          1 75N       0.627600
     15 C15         -0.7770    -2.6940     0.4810 cc         1 75N       0.561400
     16 C16          5.8470     1.7740    -1.1630 c6         1 75N      -0.080400
     17 C17          7.0480     0.7990    -1.3150 c6         1 75N      -0.118400
     18 C18          4.5030     1.0590    -1.4490 c6         1 75N       0.192800
     19 C19          0.5580    -4.0290    -0.7110 cc         1 75N      -0.206000
     20 C20          5.4600    -1.1260    -0.7730 c6         1 75N       0.207800
     21 C21         -0.6580    -4.6250    -0.4700 cd         1 75N       0.257900
     22 C22          6.8530    -0.4800    -0.4580 c6         1 75N       0.155500
     23 C23          0.2580     4.3720    -0.9800 c3         1 75N      -0.012000
     24 C24         -4.6750    -0.4820    -2.5290 c3         1 75N      -0.156400
     25 C26         -2.5310    -1.4330     1.7510 c3         1 75N       0.068700
     26 N27         -3.9800     0.5380     1.5710 nb         1 75N      -0.162000
     27 N28         -3.6610    -0.8740    -0.3510 nb         1 75N      -0.183000
     28 N29          2.6520    -1.7740    -0.5680 nd         1 75N      -0.719000
     29 N30          2.1590     0.1320     0.5150 na         1 75N      -0.125500
     30 N31          0.4490    -2.8060    -0.0920 na         1 75N      -0.162000
     31 N32          4.3500    -0.1400    -0.5830 nh         1 75N      -0.765300
     32 N33         -1.1660    -1.5640     1.1760 n          1 75N      -0.358300
     33 N34         -1.4850    -3.7910     0.2730 nd         1 75N      -0.708000
     34 N35          6.9870    -0.1390     0.9810 n8         1 75N      -0.987200
     35 H1          -7.1220     3.7270    -1.1950 ha         1 75N       0.116000
     36 H2          -6.6400     4.2140     1.2000 ha         1 75N       0.117000
     37 H3          -6.1300     1.7460    -2.2890 ha         1 75N       0.116000
     38 H4          -5.1570     2.7070     2.5050 ha         1 75N       0.135000
     39 H5           5.8280     2.2000    -0.1510 hc         1 75N       0.048200
     40 H6           5.9670     2.6210    -1.8520 hc         1 75N       0.048200
     41 H7           7.1480     0.5110    -2.3700 hc         1 75N       0.048200
     42 H8           7.9860     1.3050    -1.0470 hc         1 75N       0.048200
     43 H9           3.6780     1.7690    -1.3040 h1         1 75N       0.049200
     44 H10          4.4750     0.7570    -2.5070 h1         1 75N       0.049200
     45 H11          1.4370    -4.3680    -1.2450 h4         1 75N       0.175000
     46 H12          5.4620    -1.4950    -1.8100 h1         1 75N       0.062700
     47 H13          5.3210    -2.0020    -0.1220 h1         1 75N       0.062700
     48 H14         -0.9850    -5.6080    -0.7890 h4         1 75N       0.040100
     49 H15          7.6520    -1.1960    -0.7070 h1         1 75N       0.068700
     50 H16          0.3910     5.3660    -0.5360 hc         1 75N       0.056367
     51 H17          0.5970     4.4060    -2.0220 hc         1 75N       0.056367
     52 H18         -0.8090     4.1230    -0.9670 hc         1 75N       0.056367
     53 H19         -4.3290     0.3020    -3.2120 hc         1 75N       0.057700
     54 H20         -4.1280    -1.3990    -2.7790 hc         1 75N       0.057700
     55 H21         -5.7360    -0.6680    -2.7330 hc         1 75N       0.057700
     56 H22          3.4130     1.7070     1.1470 h1         1 75N       0.089700
     57 H23          1.9840     1.4390     2.1490 h1         1 75N       0.089700
     58 H24         -2.4490    -1.0450     2.7750 h1         1 75N       0.097200
     59 H25         -3.0000    -2.4220     1.8350 h1         1 75N       0.097200
     60 H26          7.6830     0.6080     1.0730 hn         1 75N       0.396000
     61 H27          6.1090     0.3160     1.2540 hn         1 75N       0.396000
     62 O36         -0.5550     0.5270     1.9230 o          1 75N      -0.532000
     63 C25          2.3440     1.4660     1.1130 c3         1 75N       0.174700
@<TRIPOS>BOND
     1     1     2 3   
     2     1    23 1   
     3     2    63 1   
     4     3     4 ar  
     5     3     5 ar  
     6     3    35 1   
     7     4     6 ar  
     8     4    36 1   
     9     5     7 ar  
    10     5    37 1   
    11     6     8 ar  
    12     6    38 1   
    13     7     8 ar  
    14     7    10 ar  
    15     8    26 ar  
    16     9    11 2   
    17     9    14 1   
    18     9    29 1   
    19    10    24 1   
    20    10    27 ar  
    21    11    28 1   
    22    11    30 1   
    23    12    25 1   
    24    12    26 ar  
    25    12    27 ar  
    26    13    28 2   
    27    13    29 1   
    28    13    31 1   
    29    14    32 1   
    30    14    62 2   
    31    15    30 1   
    32    15    32 1   
    33    15    33 2   
    34    16    17 1   
    35    16    18 1   
    36    16    39 1   
    37    16    40 1   
    38    17    22 1   
    39    17    41 1   
    40    17    42 1   
    41    18    31 1   
    42    18    43 1   
    43    18    44 1   
    44    19    21 2   
    45    19    30 1   
    46    19    45 1   
    47    20    22 1   
    48    20    31 1   
    49    20    46 1   
    50    20    47 1   
    51    21    33 1   
    52    21    48 1   
    53    22    34 1   
    54    22    49 1   
    55    23    50 1   
    56    23    51 1   
    57    23    52 1   
    58    24    53 1   
    59    24    54 1   
    60    24    55 1   
    61    25    32 1   
    62    25    58 1   
    63    25    59 1   
    64    29    63 1   
    65    34    60 1   
    66    34    61 1   
    67    56    63 1   
    68    57    63 1   
@<TRIPOS>SUBSTRUCTURE
     1 75N         1 TEMP              0 ****  ****    0 ROOT
