@<TRIPOS>MOLECULE
75N
   63    68     1     0     0
SMALL
bcc


@<TRIPOS>ATOM
      1 C1           1.0110     3.2970    -0.4460 c1         1 75N      -0.082100
      2 C2           1.5760     2.4680     0.2170 c1         1 75N      -0.183100
      3 C3          -6.5130     2.8570    -0.5590 ca         1 75N      -0.134000
      4 C4          -6.7270     2.7060     0.8260 ca         1 75N      -0.108000
      5 C5          -5.5380     2.1320    -1.1900 ca         1 75N      -0.093000
      6 C6          -5.9640     1.8400     1.5640 ca         1 75N      -0.171300
      7 C7          -4.7420     1.2300    -0.4530 ca         1 75N      -0.273600
      8 C8          -4.9520     1.0860     0.9350 ca         1 75N       0.429600
      9 C9           0.9710    -0.6860     0.6760 cc         1 75N      -0.326200
     10 C10         -3.7150     0.4230    -1.0220 ca         1 75N       0.490600
     11 C11          1.3180    -1.8740     0.0950 cd         1 75N       0.480800
     12 C12         -3.2750    -0.4290     1.0450 ca         1 75N       0.658300
     13 C13          2.9790    -0.6220    -0.1990 cc         1 75N       0.677400
     14 C14         -0.2830    -0.4380     1.3190 c          1 75N       0.770100
     15 C15         -0.7990    -2.7340     0.6820 cc         1 75N       0.561400
     16 C16          5.5800     1.6620    -1.4790 c6         1 75N      -0.080400
     17 C17          6.7500     0.6880    -1.5630 c6         1 75N      -0.118400
     18 C18          4.2590     0.9180    -1.5620 c6         1 75N       0.192800
     19 C19          0.4480    -4.1840    -0.4190 cc         1 75N      -0.238600
     20 C20          5.2750    -1.1170    -0.6810 c6         1 75N       0.207800
     21 C21         -0.7680    -4.7030    -0.1080 cd         1 75N       0.323200
     22 C22          6.6220    -0.4250    -0.5170 c6         1 75N       0.155500
     23 C23          0.3140     4.2920    -1.2430 c3         1 75N      -0.012000
     24 C24         -3.4120     0.4690    -2.4840 c3         1 75N      -0.156400
     25 C26         -2.4430    -1.3870     1.8580 c3         1 75N       0.068700
     26 N27         -4.1910     0.2430     1.6760 nb         1 75N      -0.688000
     27 N28         -3.0130    -0.3890    -0.2760 nb         1 75N      -0.709000
     28 N29          2.5410    -1.8500    -0.4470 nd         1 75N      -0.719000
     29 N30          2.0760     0.1180     0.4890 na         1 75N      -0.146900
     30 N31          0.4210    -2.9050     0.0990 na         1 75N      -0.212700
     31 N32          4.2090    -0.1310    -0.5350 nh         1 75N      -0.765300
     32 N33         -1.1160    -1.5510     1.3040 n          1 75N      -0.425300
     33 N34         -1.5420    -3.7990     0.5770 nd         1 75N      -0.708000
     34 N35          6.7700     0.0140     0.8640 n8         1 75N      -0.876800
     35 H1          -7.1240     3.5490    -1.1220 ha         1 75N       0.134000
     36 H2          -7.5040     3.2840     1.3100 ha         1 75N       0.135000
     37 H3          -5.3780     2.2530    -2.2530 ha         1 75N       0.134000
     38 H4          -6.1200     1.7200     2.6280 ha         1 75N       0.153000
     39 H5           5.6200     2.2340    -0.5470 hc         1 75N       0.048200
     40 H6           5.6280     2.3880    -2.2920 hc         1 75N       0.048200
     41 H7           6.7710     0.2370    -2.5610 hc         1 75N       0.048200
     42 H8           7.7000     1.2150    -1.4380 hc         1 75N       0.048200
     43 H9           3.4240     1.6050    -1.4290 h1         1 75N       0.049200
     44 H10          4.1460     0.4660    -2.5570 h1         1 75N       0.049200
     45 H11          1.3040    -4.5760    -0.9410 h4         1 75N       0.193000
     46 H12          5.2270    -1.6140    -1.6590 h1         1 75N       0.062700
     47 H13          5.1570    -1.8810     0.0860 h1         1 75N       0.062700
     48 H14         -1.1360    -5.6900    -0.3420 h4         1 75N       0.040100
     49 H15          7.3940    -1.1760    -0.7110 h1         1 75N       0.068700
     50 H16         -0.2980     4.9390    -0.6140 hc         1 75N       0.056367
     51 H17          1.0150     4.9200    -1.7930 hc         1 75N       0.056367
     52 H18         -0.3440     3.8140    -1.9690 hc         1 75N       0.056367
     53 H19         -3.1450     1.4780    -2.8000 hc         1 75N       0.057700
     54 H20         -2.5860    -0.1990    -2.7150 hc         1 75N       0.057700
     55 H21         -4.2800     0.1680    -3.0740 hc         1 75N       0.057700
     56 H22          3.3410     1.6490     1.0310 h1         1 75N       0.089700
     57 H23          1.9220     1.4820     2.0430 h1         1 75N       0.089700
     58 H24         -2.3810    -1.0390     2.8880 h1         1 75N       0.097200
     59 H25         -2.9250    -2.3650     1.8730 h1         1 75N       0.097200
     60 H26          7.6240     0.5510     0.9570 hn         1 75N       0.340800
     61 H27          6.0180     0.6510     1.0970 hn         1 75N       0.340800
     62 O36         -0.6360     0.6030     1.8470 o          1 75N      -0.607500
     63 C25          2.2660     1.4580     1.0100 c3         1 75N       0.145400
@<TRIPOS>BOND
     1     1     2 3   
     2     1    23 1   
     3     2    63 1   
     4     3     4 ar  
     5     3     5 ar  
     6     3    35 1   
     7     4     6 ar  
     8     4    36 1   
     9     5     7 ar  
    10     5    37 1   
    11     6     8 ar  
    12     6    38 1   
    13     7     8 ar  
    14     7    10 ar  
    15     8    26 ar  
    16     9    11 2   
    17     9    14 1   
    18     9    29 1   
    19    10    24 1   
    20    10    27 ar  
    21    11    28 1   
    22    11    30 1   
    23    12    25 1   
    24    12    26 ar  
    25    12    27 ar  
    26    13    28 2   
    27    13    29 1   
    28    13    31 1   
    29    14    32 1   
    30    14    62 2   
    31    15    30 1   
    32    15    32 1   
    33    15    33 2   
    34    16    17 1   
    35    16    18 1   
    36    16    39 1   
    37    16    40 1   
    38    17    22 1   
    39    17    41 1   
    40    17    42 1   
    41    18    31 1   
    42    18    43 1   
    43    18    44 1   
    44    19    21 2   
    45    19    30 1   
    46    19    45 1   
    47    20    22 1   
    48    20    31 1   
    49    20    46 1   
    50    20    47 1   
    51    21    33 1   
    52    21    48 1   
    53    22    34 1   
    54    22    49 1   
    55    23    50 1   
    56    23    51 1   
    57    23    52 1   
    58    24    53 1   
    59    24    54 1   
    60    24    55 1   
    61    25    32 1   
    62    25    58 1   
    63    25    59 1   
    64    29    63 1   
    65    34    60 1   
    66    34    61 1   
    67    56    63 1   
    68    57    63 1   
@<TRIPOS>SUBSTRUCTURE
     1 75N         1 TEMP              0 ****  ****    0 ROOT
