@<TRIPOS>MOLECULE
75O
   39    41     1     0     0
SMALL
abcg2


@<TRIPOS>ATOM
      1 N3          -4.3350     1.5320    -0.2500 na         1 75O      -0.241700
      2 C4           2.7490    -1.5430    -1.1970 ca         1 75O      -0.276000
      3 N2           3.1810    -0.2190     0.7380 nb         1 75O      -0.845000
      4 C7           1.9380     0.2000     0.7210 ca         1 75O       0.638300
      5 C6           0.9940    -0.1700    -0.2470 cp         1 75O      -0.120000
      6 C9          -0.3880     0.3470    -0.2450 cp         1 75O      -0.085000
      7 C13         -1.9470     2.2230    -0.4860 ca         1 75O      -0.150000
      8 C8           2.4800     1.4960     2.6200 c3         1 75O       0.163900
      9 C16         -4.0570    -0.6670     0.0860 cc         1 75O      -0.157400
     10 C1           5.4980    -2.2390    -1.1760 c3         1 75O       0.221600
     11 C2           5.8100    -0.7820     0.8000 c3         1 75O       0.221600
     12 C3           3.6140    -1.0780    -0.1920 ca         1 75O       0.643900
     13 C5           1.4470    -1.0730    -1.1980 ca         1 75O      -0.003000
     14 C10         -1.4510    -0.5240    -0.0570 ca         1 75O      -0.001000
     15 C11         -2.7680    -0.0570    -0.0760 ca         1 75O      -0.068800
     16 C12         -2.9880     1.3220    -0.2840 ca         1 75O      -0.066200
     17 C14         -0.6670     1.7120    -0.4670 ca         1 75O       0.155000
     18 CL1          0.6460     2.8080    -0.7740 cl         1 75O      -0.255000
     19 C15         -4.9700     0.3470    -0.0300 cd         1 75O      -0.169100
     20 C17         -4.3820    -2.1070     0.3260 c          1 75O       0.731200
     21 O2          -5.5920    -2.3980     0.4390 o          1 75O      -0.728500
     22 O3          -3.4180    -2.8980     0.3920 o          1 75O      -0.728500
     23 H1          -4.7940     2.4200    -0.3710 hn         1 75O       0.325000
     24 H2           3.0720    -2.2290    -1.9650 ha         1 75O       0.116000
     25 H3          -2.1310     3.2750    -0.6610 ha         1 75O       0.108000
     26 H4           3.2710     2.0700     2.1350 h1         1 75O       0.035367
     27 H5           1.9340     2.1450     3.3010 h1         1 75O       0.035367
     28 H6           2.9390     0.6840     3.1840 h1         1 75O       0.035367
     29 H7           6.5070    -2.5320    -0.8990 h1         1 75O       0.032033
     30 H8           4.9380    -3.1550    -1.3680 h1         1 75O       0.032033
     31 H9           5.5560    -1.6740    -2.1130 h1         1 75O       0.032033
     32 H10          6.1070     0.2010     0.4210 h1         1 75O       0.032033
     33 H11          5.3490    -0.6380     1.7730 h1         1 75O       0.032033
     34 H12          6.7080    -1.3820     0.9340 h1         1 75O       0.032033
     35 H13          0.7680    -1.4070    -1.9730 ha         1 75O       0.126000
     36 H14         -1.2580    -1.5740     0.1170 ha         1 75O       0.154000
     37 H15         -6.0450     0.3080     0.0290 h4         1 75O       0.216000
     38 N1           4.9120    -1.4780    -0.0980 nh         1 75O      -0.788300
     39 O1           1.5240     1.0250     1.6850 os         1 75O      -0.436300
@<TRIPOS>BOND
     1     1    16 1   
     2     1    19 1   
     3     1    23 1   
     4     2    12 ar  
     5     2    13 ar  
     6     2    24 1   
     7     3     4 ar  
     8     3    12 ar  
     9     4     5 ar  
    10     4    39 1   
    11     5     6 1   
    12     5    13 ar  
    13     6    14 ar  
    14     6    17 ar  
    15     7    16 ar  
    16     7    17 ar  
    17     7    25 1   
    18     8    26 1   
    19     8    27 1   
    20     8    28 1   
    21     8    39 1   
    22     9    15 1   
    23     9    19 2   
    24     9    20 1   
    25    10    29 1   
    26    10    30 1   
    27    10    31 1   
    28    10    38 1   
    29    11    32 1   
    30    11    33 1   
    31    11    34 1   
    32    11    38 1   
    33    12    38 1   
    34    13    35 1   
    35    14    15 ar  
    36    14    36 1   
    37    15    16 ar  
    38    17    18 1   
    39    19    37 1   
    40    20    21 1   
    41    20    22 1   
@<TRIPOS>SUBSTRUCTURE
     1 75O         1 TEMP              0 ****  ****    0 ROOT
