@<TRIPOS>MOLECULE
75O
   39    41     1     0     0
SMALL
No Charge or Current Charge


@<TRIPOS>ATOM
      1 N3          -4.4140     1.5560    -0.2240 na         1 75O      -0.241700
      2 C4           2.7760    -1.4060    -1.3160 ca         1 75O      -0.276000
      3 N2           3.2390    -0.1840     0.7040 nb         1 75O      -0.845000
      4 C7           1.9640     0.2550     0.6910 ca         1 75O       0.638300
      5 C6           1.0160    -0.0930    -0.3080 cp         1 75O      -0.120000
      6 C9          -0.3910     0.4100    -0.2960 cp         1 75O      -0.085000
      7 C13         -2.0300     2.2470    -0.4780 ca         1 75O      -0.150000
      8 C8           2.4150     1.5600     2.7230 c3         1 75O       0.163900
      9 C16         -4.0450    -0.6850     0.0860 cc         1 75O      -0.157400
     10 C1           5.4920    -2.5100    -1.0530 c3         1 75O       0.221600
     11 C2           5.9410    -0.7810     0.7350 c3         1 75O       0.221600
     12 C3           3.6360    -0.9950    -0.2830 ca         1 75O       0.643900
     13 C5           1.4500    -0.9560    -1.3310 ca         1 75O      -0.003000
     14 C10         -1.4620    -0.5030    -0.1000 ca         1 75O      -0.001000
     15 C11         -2.7790    -0.0150    -0.0900 ca         1 75O      -0.068800
     16 C12         -3.0520     1.3130    -0.2700 ca         1 75O      -0.066200
     17 C14         -0.6960     1.7910    -0.4930 ca         1 75O       0.155000
     18 Cl1          0.5760     2.9720    -0.8050 cl         1 75O      -0.255000
     19 C15         -5.0290     0.3010    -0.0010 cd         1 75O      -0.169100
     20 C17         -4.3150    -2.1350     0.3170 c          1 75O       0.731200
     21 O2          -5.4770    -2.4970     0.4410 o          1 75O      -0.728500
     22 O3          -3.3780    -2.9170     0.3760 o          1 75O      -0.728500
     23 H1          -4.8770     2.4540    -0.3300 hn         1 75O       0.325000
     24 H2           3.1230    -2.0600    -2.1080 ha         1 75O       0.116000
     25 H3          -2.2580     3.2980    -0.6320 ha         1 75O       0.108000
     26 H4           3.2090     2.1670     2.2680 h1         1 75O       0.035367
     27 H5           1.8720     2.1910     3.4380 h1         1 75O       0.035367
     28 H6           2.8790     0.7360     3.2810 h1         1 75O       0.035367
     29 H7           6.4720    -2.8600    -0.7010 h1         1 75O       0.032033
     30 H8           4.8070    -3.3680    -1.0230 h1         1 75O       0.032033
     31 H9           5.6000    -2.1750    -2.0930 h1         1 75O       0.032033
     32 H10          5.9070     0.3140     0.6480 h1         1 75O       0.032033
     33 H11          5.7070    -1.0640     1.7700 h1         1 75O       0.032033
     34 H12          6.9710    -1.0950     0.5200 h1         1 75O       0.032033
     35 H13          0.7710    -1.2600    -2.1250 ha         1 75O       0.126000
     36 H14         -1.2560    -1.5590     0.0450 ha         1 75O       0.154000
     37 H15         -6.1080     0.1940     0.0800 h4         1 75O       0.216000
     38 N1           4.9800    -1.4100    -0.2060 nh         1 75O      -0.788300
     39 O1           1.5160     1.0580     1.7190 os         1 75O      -0.436300
@<TRIPOS>BOND
     1     1    16 1   
     2     1    19 1   
     3     1    23 1   
     4     2    12 ar  
     5     2    13 ar  
     6     2    24 1   
     7     3     4 ar  
     8     3    12 ar  
     9     4     5 ar  
    10     4    39 1   
    11     5     6 1   
    12     5    13 ar  
    13     6    14 ar  
    14     6    17 ar  
    15     7    16 ar  
    16     7    17 ar  
    17     7    25 1   
    18     8    26 1   
    19     8    27 1   
    20     8    28 1   
    21     8    39 1   
    22     9    15 1   
    23     9    19 2   
    24     9    20 1   
    25    10    29 1   
    26    10    30 1   
    27    10    31 1   
    28    10    38 1   
    29    11    32 1   
    30    11    33 1   
    31    11    34 1   
    32    11    38 1   
    33    12    38 1   
    34    13    35 1   
    35    14    15 ar  
    36    14    36 1   
    37    15    16 ar  
    38    17    18 1   
    39    19    37 1   
    40    20    21 1   
    41    20    22 1   
@<TRIPOS>SUBSTRUCTURE
     1 75O         1 TEMP              0 ****  ****    0 ROOT
