@<TRIPOS>MOLECULE
75P
   70    73     1     0     0
SMALL
abcg2


@<TRIPOS>ATOM
      1 C4          -3.0970    -0.3970     0.0520 ca         1 75P       0.122000
      2 C5          -1.9030     0.3360     0.1370 ca         1 75P      -0.226000
      3 C6          -0.7010    -0.4510     0.1210 ca         1 75P       0.437900
      4 N1          -0.7440    -1.7640     0.0570 nb         1 75P      -0.340000
      5 N3          -3.1280    -1.7470    -0.0170 nb         1 75P      -0.299000
      6 NBA         -7.6780     3.6860    -1.1890 n8         1 75P      -0.998200
      7 CAZ         -7.7920     2.8420    -0.0120 c3         1 75P       0.153800
      8 CAY         -6.7230     1.7770     0.0050 c3         1 75P       0.158600
      9 CAW         -4.3530     1.6780     0.1300 ca         1 75P       0.174100
     10 CAC         -3.1350     2.4170     0.2290 ca         1 75P       0.079100
     11 OAB         -3.2840     3.7530     0.3150 os         1 75P      -0.323100
     12 CAA         -2.1180     4.5370     0.4470 c3         1 75P       0.145900
     13 CAD         -1.9420     1.7450     0.2320 ca         1 75P      -0.127000
     14 CAV         -4.3230     0.3090     0.0440 ca         1 75P      -0.208000
     15 C2          -1.9560    -2.3560    -0.0010 ca         1 75P       0.437900
     16 NBB         -1.9450    -3.7010    -0.0540 nh         1 75P      -0.788300
     17 CBF         -3.1540    -4.4950    -0.1800 c5         1 75P       0.241300
     18 CBE         -2.6220    -5.8990    -0.4540 c5         1 75P      -0.098400
     19 CBD         -1.2780    -5.9120     0.2700 c5         1 75P      -0.098400
     20 CBC         -0.7370    -4.5060     0.0270 c5         1 75P       0.241300
     21 NAG          0.5080     0.1280     0.1740 nu         1 75P      -0.931100
     22 CAH          1.7450    -0.6170     0.0710 c3         1 75P       0.231800
     23 CAI          2.9380     0.3220     0.1390 c3         1 75P      -0.096400
     24 CAJ          4.2550    -0.4260    -0.0090 c3         1 75P      -0.073400
     25 CAK          5.4690     0.4920     0.0640 c3         1 75P      -0.077400
     26 CAL          6.7690    -0.2730    -0.1380 c3         1 75P       0.171800
     27 NAM          7.9510     0.5380     0.0460 n3         1 75P      -0.717600
     28 CAN          8.1220     1.5980    -0.9330 c5         1 75P       0.157800
     29 CAQ          9.1840    -0.2250    -0.0250 c5         1 75P       0.157800
     30 CAP         10.2690     0.8480    -0.0710 c5         1 75P      -0.079400
     31 CAO          9.5750     2.0490    -0.7470 c5         1 75P      -0.079400
     32 H1          -8.4600     4.3270    -1.2180 hn         1 75P       0.400500
     33 H2          -6.8510     4.2660    -1.1150 hn         1 75P       0.400500
     34 H4          -7.7690     3.3890     0.9410 h1         1 75P       0.036700
     35 H5          -8.7530     2.3240    -0.0450 h1         1 75P       0.036700
     36 H6          -6.8860     1.0910     0.8430 h1         1 75P       0.046200
     37 H7          -6.7550     1.1960    -0.9230 h1         1 75P       0.046200
     38 H8          -2.4450     5.5720     0.5030 h1         1 75P       0.036700
     39 H9          -1.5620     4.2920     1.3560 h1         1 75P       0.036700
     40 H10         -1.4500     4.4250    -0.4120 h1         1 75P       0.036700
     41 H11         -1.0230     2.3090     0.3180 ha         1 75P       0.106000
     42 H12         -5.2310    -0.2740    -0.0280 ha         1 75P       0.137000
     43 H13         -3.7450    -4.4650     0.7420 h1         1 75P       0.052950
     44 H14         -3.7910    -4.1210    -0.9820 h1         1 75P       0.052950
     45 H15         -3.3060    -6.6730    -0.1090 hc         1 75P       0.051700
     46 H16         -2.4720    -6.0420    -1.5270 hc         1 75P       0.051700
     47 H17         -1.4290    -6.0760     1.3390 hc         1 75P       0.051700
     48 H18         -0.5990    -6.6830    -0.0930 hc         1 75P       0.051700
     49 H19         -0.1640    -4.4570    -0.9050 h1         1 75P       0.052950
     50 H20         -0.0810    -4.1600     0.8250 h1         1 75P       0.052950
     51 H21          0.5710     1.1280     0.0960 hn         1 75P       0.492000
     52 H22          1.7990    -1.3510     0.8780 h1         1 75P       0.053700
     53 H23          1.7670    -1.1860    -0.8650 h1         1 75P       0.053700
     54 H24          2.8570     1.0750    -0.6520 hc         1 75P       0.043700
     55 H25          2.9250     0.8640     1.0910 hc         1 75P       0.043700
     56 H26          4.3300    -1.1910     0.7720 hc         1 75P       0.042200
     57 H27          4.2610    -0.9630    -0.9630 hc         1 75P       0.042200
     58 H28          5.3700     1.2750    -0.6930 hc         1 75P       0.046700
     59 H29          5.4950     0.9960     1.0350 hc         1 75P       0.046700
     60 H30          6.8090    -1.0950     0.5860 h1         1 75P       0.028200
     61 H31          6.7590    -0.7440    -1.1390 h1         1 75P       0.028200
     62 H33          7.9660     1.2230    -1.9600 h1         1 75P       0.033950
     63 H34          7.4080     2.4090    -0.7770 h1         1 75P       0.033950
     64 H35          9.2760    -0.8990     0.8300 h1         1 75P       0.033950
     65 H36          9.2250    -0.8460    -0.9360 h1         1 75P       0.033950
     66 H37         10.5920     1.1080     0.9380 hc         1 75P       0.046200
     67 H38         11.1500     0.5080    -0.6140 hc         1 75P       0.046200
     68 H39         10.0290     2.3090    -1.7020 hc         1 75P       0.046200
     69 H40          9.6300     2.9360    -0.1150 hc         1 75P       0.046200
     70 OAX         -5.4640     2.4230     0.1360 os         1 75P      -0.332100
@<TRIPOS>BOND
     1     1     2 ar  
     2     1     5 ar  
     3     1    14 ar  
     4     2     3 ar  
     5     2    13 ar  
     6     3     4 ar  
     7     3    21 1   
     8     4    15 ar  
     9     5    15 ar  
    10     6     7 1   
    11     6    32 1   
    12     6    33 1   
    13     7     8 1   
    14     7    34 1   
    15     7    35 1   
    16     8    36 1   
    17     8    37 1   
    18     8    70 1   
    19     9    10 ar  
    20     9    14 ar  
    21     9    70 1   
    22    10    11 1   
    23    10    13 ar  
    24    11    12 1   
    25    12    38 1   
    26    12    39 1   
    27    12    40 1   
    28    13    41 1   
    29    14    42 1   
    30    15    16 1   
    31    16    17 1   
    32    16    20 1   
    33    17    18 1   
    34    17    43 1   
    35    17    44 1   
    36    18    19 1   
    37    18    45 1   
    38    18    46 1   
    39    19    20 1   
    40    19    47 1   
    41    19    48 1   
    42    20    49 1   
    43    20    50 1   
    44    21    22 1   
    45    21    51 1   
    46    22    23 1   
    47    22    52 1   
    48    22    53 1   
    49    23    24 1   
    50    23    54 1   
    51    23    55 1   
    52    24    25 1   
    53    24    56 1   
    54    24    57 1   
    55    25    26 1   
    56    25    58 1   
    57    25    59 1   
    58    26    27 1   
    59    26    60 1   
    60    26    61 1   
    61    27    28 1   
    62    27    29 1   
    63    28    31 1   
    64    28    62 1   
    65    28    63 1   
    66    29    30 1   
    67    29    64 1   
    68    29    65 1   
    69    30    31 1   
    70    30    66 1   
    71    30    67 1   
    72    31    68 1   
    73    31    69 1   
@<TRIPOS>SUBSTRUCTURE
     1 75P         1 TEMP              0 ****  ****    0 ROOT
