@<TRIPOS>MOLECULE
75P
   70    73     1     0     0
SMALL
No Charge or Current Charge


@<TRIPOS>ATOM
      1 C4          -3.1670    -0.4560     0.0450 ca         1 75P       0.122000
      2 C5          -1.9220     0.2110     0.0510 ca         1 75P      -0.226000
      3 C6          -0.7620    -0.5970     0.0160 ca         1 75P       0.437900
      4 N1          -0.8300    -1.9340    -0.0210 nb         1 75P      -0.340000
      5 N3          -3.2220    -1.8000     0.0080 nb         1 75P      -0.299000
      6 NBA         -7.7960     3.9180    -0.9690 n8         1 75P      -0.998200
      7 CAZ         -7.8490     3.0030     0.2010 c3         1 75P       0.153800
      8 CAY         -6.7940     1.8660     0.1480 c3         1 75P       0.158600
      9 CAW         -4.3190     1.7040     0.1170 ca         1 75P       0.174100
     10 CAC         -3.0750     2.3760     0.1230 ca         1 75P       0.079100
     11 OAB         -3.0700     3.7620     0.1630 os         1 75P      -0.323100
     12 CAA         -1.8560     4.5340     0.1730 c3         1 75P       0.145900
     13 CAD         -1.8770     1.6260     0.0900 ca         1 75P      -0.127000
     14 CAV         -4.3530     0.2930     0.0780 ca         1 75P      -0.208000
     15 C2          -2.0580    -2.4750    -0.0230 ca         1 75P       0.437900
     16 NBB         -2.1330    -3.8850    -0.0620 nh         1 75P      -0.788300
     17 CBF         -3.4120    -4.6450    -0.1300 c5         1 75P       0.241300
     18 CBE         -2.9130    -6.0590    -0.5260 c5         1 75P      -0.098400
     19 CBD         -1.5920    -6.1520     0.2790 c5         1 75P      -0.098400
     20 CBC         -0.9440    -4.7800    -0.0390 c5         1 75P       0.241300
     21 NAG          0.5200    -0.0520     0.0190 nu         1 75P      -0.931100
     22 CAH          1.7990    -0.7790    -0.0140 c3         1 75P       0.231800
     23 CAI          2.9800     0.2120     0.0020 c3         1 75P      -0.096400
     24 CAJ          4.3550    -0.4920    -0.0310 c3         1 75P      -0.073400
     25 CAK          5.5420     0.4960    -0.0150 c3         1 75P      -0.077400
     26 CAL          6.9140    -0.2120    -0.0500 c3         1 75P       0.171800
     27 NAM          8.0710     0.7040     0.0600 n3         1 75P      -0.717600
     28 CAN          8.2510     1.6640    -1.0520 c5         1 75P       0.157800
     29 CAQ          9.3870     0.0370     0.1260 c5         1 75P       0.157800
     30 CAP         10.3440     1.2560     0.1640 c5         1 75P      -0.079400
     31 CAO          9.6020     2.3360    -0.6860 c5         1 75P      -0.079400
     32 H1          -8.4010     4.7290    -0.7890 hn         1 75P       0.400500
     33 H2          -6.8520     4.3250    -1.0140 hn         1 75P       0.400500
     34 H4          -7.6900     3.5920     1.1150 h1         1 75P       0.036700
     35 H5          -8.8540     2.5620     0.2550 h1         1 75P       0.036700
     36 H6          -6.9260     1.2170     1.0240 h1         1 75P       0.046200
     37 H7          -6.9500     1.2650    -0.7570 h1         1 75P       0.046200
     38 H8          -2.0890     5.6060     0.2060 h1         1 75P       0.036700
     39 H9          -1.2470     4.2920     1.0530 h1         1 75P       0.036700
     40 H10         -1.2640     4.3430    -0.7310 h1         1 75P       0.036700
     41 H11         -0.9190     2.1350     0.0950 ha         1 75P       0.106000
     42 H12         -5.2970    -0.2430     0.0720 ha         1 75P       0.137000
     43 H13         -3.9170    -4.6570     0.8460 h1         1 75P       0.052950
     44 H14         -4.1080    -4.2440    -0.8810 h1         1 75P       0.052950
     45 H15         -3.6310    -6.8430    -0.2620 hc         1 75P       0.051700
     46 H16         -2.7290    -6.1280    -1.6050 hc         1 75P       0.051700
     47 H17         -1.7850    -6.2610     1.3530 hc         1 75P       0.051700
     48 H18         -0.9620    -6.9930    -0.0310 hc         1 75P       0.051700
     49 H19         -0.4400    -4.7920    -1.0160 h1         1 75P       0.052950
     50 H20         -0.2110    -4.4990     0.7300 h1         1 75P       0.052950
     51 H21          0.5620     0.9630     0.0470 hn         1 75P       0.492000
     52 H22          1.8750    -1.4470     0.8560 h1         1 75P       0.053700
     53 H23          1.8580    -1.3970    -0.9210 h1         1 75P       0.053700
     54 H24          2.8990     0.8830    -0.8610 hc         1 75P       0.043700
     55 H25          2.9170     0.8330     0.9040 hc         1 75P       0.043700
     56 H26          4.4360    -1.1670     0.8310 hc         1 75P       0.042200
     57 H27          4.4190    -1.1160    -0.9320 hc         1 75P       0.042200
     58 H28          5.4540     1.1700    -0.8750 hc         1 75P       0.046700
     59 H29          5.4830     1.1160     0.8890 hc         1 75P       0.046700
     60 H30          6.9460    -0.9280     0.7820 h1         1 75P       0.028200
     61 H31          6.9860    -0.7950    -0.9790 h1         1 75P       0.028200
     62 H33          8.3190     1.1420    -2.0180 h1         1 75P       0.033950
     63 H34          7.4360     2.3980    -1.1180 h1         1 75P       0.033950
     64 H35          9.4940    -0.5990     1.0150 h1         1 75P       0.033950
     65 H36          9.5670    -0.5830    -0.7640 h1         1 75P       0.033950
     66 H37         10.4910     1.6050     1.1930 hc         1 75P       0.046200
     67 H38         11.3340     1.0100    -0.2380 hc         1 75P       0.046200
     68 H39         10.1640     2.6210    -1.5820 hc         1 75P       0.046200
     69 H40          9.4420     3.2480    -0.1010 hc         1 75P       0.046200
     70 OAX         -5.4790     2.4600     0.1510 os         1 75P      -0.332100
@<TRIPOS>BOND
     1     1     2 ar  
     2     1     5 ar  
     3     1    14 ar  
     4     2     3 ar  
     5     2    13 ar  
     6     3     4 ar  
     7     3    21 1   
     8     4    15 ar  
     9     5    15 ar  
    10     6     7 1   
    11     6    32 1   
    12     6    33 1   
    13     7     8 1   
    14     7    34 1   
    15     7    35 1   
    16     8    36 1   
    17     8    37 1   
    18     8    70 1   
    19     9    10 ar  
    20     9    14 ar  
    21     9    70 1   
    22    10    11 1   
    23    10    13 ar  
    24    11    12 1   
    25    12    38 1   
    26    12    39 1   
    27    12    40 1   
    28    13    41 1   
    29    14    42 1   
    30    15    16 1   
    31    16    17 1   
    32    16    20 1   
    33    17    18 1   
    34    17    43 1   
    35    17    44 1   
    36    18    19 1   
    37    18    45 1   
    38    18    46 1   
    39    19    20 1   
    40    19    47 1   
    41    19    48 1   
    42    20    49 1   
    43    20    50 1   
    44    21    22 1   
    45    21    51 1   
    46    22    23 1   
    47    22    52 1   
    48    22    53 1   
    49    23    24 1   
    50    23    54 1   
    51    23    55 1   
    52    24    25 1   
    53    24    56 1   
    54    24    57 1   
    55    25    26 1   
    56    25    58 1   
    57    25    59 1   
    58    26    27 1   
    59    26    60 1   
    60    26    61 1   
    61    27    28 1   
    62    27    29 1   
    63    28    31 1   
    64    28    62 1   
    65    28    63 1   
    66    29    30 1   
    67    29    64 1   
    68    29    65 1   
    69    30    31 1   
    70    30    66 1   
    71    30    67 1   
    72    31    68 1   
    73    31    69 1   
@<TRIPOS>SUBSTRUCTURE
     1 75P         1 TEMP              0 ****  ****    0 ROOT
