@<TRIPOS>MOLECULE
75Q
   54    57     1     0     0
SMALL
No Charge or Current Charge


@<TRIPOS>ATOM
      1 CAN          7.3410    -0.4010     0.4600 c6         1 75Q       0.176300
      2 CAL          8.5650     0.5370     0.7240 c6         1 75Q       0.138800
      3 NAS          8.2530     1.6450     1.6710 n7         1 75Q      -0.840400
      4 CAM          7.0820     2.4300     1.1850 c6         1 75Q       0.138800
      5 CAO          5.8180     1.5440     0.9330 c6         1 75Q       0.176300
      6 NBD          6.0990     0.3510     0.0680 nh         1 75Q      -0.772300
      7 CBB          5.0620    -0.2870    -0.6440 ca         1 75Q       0.621900
      8 CAK          3.7000    -0.0850    -0.3540 ca         1 75Q      -0.222000
      9 NAQ          5.4780    -1.1020    -1.6280 nb         1 75Q      -0.743000
     10 CAE          4.5420    -1.7430    -2.3560 ca         1 75Q       0.388900
     11 CAF          3.1660    -1.5970    -2.1320 ca         1 75Q      -0.213000
     12 CAY          2.7030    -0.7470    -1.1040 cp         1 75Q       0.034000
     13 CAZ          1.2440    -0.5610    -0.8260 cp         1 75Q      -0.028000
     14 CAJ          0.3210    -1.6200    -1.0170 ca         1 75Q      -0.081000
     15 CAW         -1.0500    -1.4510    -0.7570 ca         1 75Q       0.098000
     16 Cl1         -2.1310    -2.8260    -0.9900 cl         1 75Q      -0.173000
     17 CAI          0.7390     0.6790    -0.3590 ca         1 75Q      -0.081000
     18 CAV         -0.6290     0.8560    -0.0970 ca         1 75Q       0.098000
     19 Cl2         -1.1990     2.4260     0.4720 cl         1 75Q      -0.173000
     20 CBC         -1.5330    -0.2060    -0.3000 ca         1 75Q       0.122100
     21 OAT         -2.8730    -0.0170    -0.0360 os         1 75Q      -0.346100
     22 CAP         -3.7770     0.2060    -1.1280 c3         1 75Q       0.218900
     23 CBA         -5.1460     0.5450    -0.5540 ca         1 75Q      -0.147300
     24 CAH         -5.5480     1.8900    -0.4630 ca         1 75Q      -0.042000
     25 CAG         -6.8130     2.1770     0.0710 ca         1 75Q      -0.171000
     26 CAU         -7.6330     1.1200     0.4980 ca         1 75Q       0.364300
     27 CAA         -9.0110     1.3780     1.0760 c3         1 75Q      -0.143400
     28 NAR         -7.2540    -0.1740     0.4160 nb         1 75Q      -0.686000
     29 CAX         -6.0340    -0.4570    -0.0970 ca         1 75Q       0.370300
     30 CAB         -5.6810    -1.9360    -0.1440 c3         1 75Q      -0.151400
     31 H1           7.6390    -1.1190    -0.3170 h1         1 75Q       0.051200
     32 H2           7.1420    -0.9840     1.3710 h1         1 75Q       0.051200
     33 H3           9.4020    -0.0620     1.1140 h1         1 75Q       0.062950
     34 H4           8.8920     0.9630    -0.2360 h1         1 75Q       0.062950
     35 H5           8.0040     1.2290     2.5780 hn         1 75Q       0.404000
     36 H7           6.8320     3.2170     1.9120 h1         1 75Q       0.062950
     37 H8           7.3500     2.9330     0.2440 h1         1 75Q       0.062950
     38 H9           5.4190     1.2110     1.9030 h1         1 75Q       0.051200
     39 H10          5.0530     2.1820     0.4670 h1         1 75Q       0.051200
     40 H11          3.4110     0.5600     0.4670 ha         1 75Q       0.124000
     41 H12          4.9070    -2.3940    -3.1490 h4         1 75Q       0.018100
     42 H13          2.4700    -2.1350    -2.7680 ha         1 75Q       0.127000
     43 H14          0.6720    -2.5910    -1.3540 ha         1 75Q       0.138500
     44 H15          1.4120     1.5200    -0.2120 ha         1 75Q       0.138500
     45 H16         -3.4250     1.0410    -1.7470 h1         1 75Q       0.048200
     46 H17         -3.8430    -0.6770    -1.7750 h1         1 75Q       0.048200
     47 H18         -4.8960     2.6950    -0.7960 ha         1 75Q       0.135000
     48 H19         -7.1550     3.2050     0.1530 ha         1 75Q       0.123000
     49 H20         -9.7870     1.2160     0.3190 hc         1 75Q       0.050367
     50 H21         -9.2200     0.7130     1.9220 hc         1 75Q       0.050367
     51 H22         -9.1050     2.4090     1.4360 hc         1 75Q       0.050367
     52 H23         -4.7790    -2.1390     0.4450 hc         1 75Q       0.051700
     53 H24         -6.4840    -2.5640     0.2610 hc         1 75Q       0.051700
     54 H25         -5.4970    -2.2640    -1.1730 hc         1 75Q       0.051700
@<TRIPOS>BOND
     1     1     2 1   
     2     1     6 1   
     3     1    31 1   
     4     1    32 1   
     5     2     3 1   
     6     2    33 1   
     7     2    34 1   
     8     3     4 1   
     9     3    35 1   
    10     4     5 1   
    11     4    36 1   
    12     4    37 1   
    13     5     6 1   
    14     5    38 1   
    15     5    39 1   
    16     6     7 1   
    17     7     8 ar  
    18     7     9 ar  
    19     8    12 ar  
    20     8    40 1   
    21     9    10 ar  
    22    10    11 ar  
    23    10    41 1   
    24    11    12 ar  
    25    11    42 1   
    26    12    13 1   
    27    13    14 ar  
    28    13    17 ar  
    29    14    15 ar  
    30    14    43 1   
    31    15    16 1   
    32    15    20 ar  
    33    17    18 ar  
    34    17    44 1   
    35    18    19 1   
    36    18    20 ar  
    37    20    21 1   
    38    21    22 1   
    39    22    23 1   
    40    22    45 1   
    41    22    46 1   
    42    23    24 ar  
    43    23    29 ar  
    44    24    25 ar  
    45    24    47 1   
    46    25    26 ar  
    47    25    48 1   
    48    26    27 1   
    49    26    28 ar  
    50    27    49 1   
    51    27    50 1   
    52    27    51 1   
    53    28    29 ar  
    54    29    30 1   
    55    30    52 1   
    56    30    53 1   
    57    30    54 1   
@<TRIPOS>SUBSTRUCTURE
     1 75Q         1 TEMP              0 ****  ****    0 ROOT
