@<TRIPOS>MOLECULE
75Q
   54    57     1     0     0
SMALL
bcc


@<TRIPOS>ATOM
      1 CAN          7.3460     0.0280     0.1560 c6         1 75Q       0.176300
      2 CAL          8.3120     1.1930    -0.0020 c6         1 75Q       0.138800
      3 NAS          8.0300     2.3080     0.8840 n7         1 75Q      -0.785200
      4 CAM          6.6490     2.7220     0.7320 c6         1 75Q       0.138800
      5 CAO          5.6290     1.5970     0.8850 c6         1 75Q       0.176300
      6 NBD          5.9660     0.4770     0.0260 nh         1 75Q      -0.772300
      7 CBB          5.0070    -0.4060    -0.3920 ca         1 75Q       0.687200
      8 CAK          3.6360    -0.2170    -0.1200 ca         1 75Q      -0.305300
      9 NAQ          5.4230    -1.4660    -1.0890 nb         1 75Q      -0.743000
     10 CAE          4.5270    -2.3240    -1.5530 ca         1 75Q       0.454200
     11 CAF          3.1640    -2.2080    -1.3630 ca         1 75Q      -0.296300
     12 CAY          2.7100    -1.1180    -0.6170 cp         1 75Q       0.034000
     13 CAZ          1.2710    -0.9350    -0.3430 cp         1 75Q      -0.028000
     14 CAJ          0.4570    -2.0380    -0.1010 ca         1 75Q      -0.099000
     15 CAW         -0.8890    -1.8610     0.1620 ca         1 75Q       0.006400
     16 CL1         -1.8900    -3.2280     0.4850 cl         1 75Q      -0.081400
     17 CAI          0.7110     0.3400    -0.3170 ca         1 75Q      -0.099000
     18 CAV         -0.6370     0.4980    -0.0550 ca         1 75Q       0.006400
     19 CL2         -1.3320     2.0760    -0.0310 cl         1 75Q      -0.081400
     20 CBC         -1.4630    -0.5940     0.2010 ca         1 75Q       0.122100
     21 OAT         -2.7640    -0.4220     0.4980 os         1 75Q      -0.322900
     22 CAP         -3.6540    -0.4140    -0.6160 c3         1 75Q       0.195700
     23 CBA         -4.9550     0.2070    -0.2040 ca         1 75Q      -0.212600
     24 CAH         -5.0680     1.0240     0.9100 ca         1 75Q      -0.060000
     25 CAG         -6.2960     1.5850     1.2240 ca         1 75Q      -0.254300
     26 CAU         -7.3860     1.3220     0.4060 ca         1 75Q       0.429600
     27 CAA         -8.7380     1.9060     0.6810 c3         1 75Q      -0.143400
     28 NAR         -7.2730     0.5470    -0.6720 nb         1 75Q      -0.686000
     29 CAX         -6.1030     0.0010    -0.9800 ca         1 75Q       0.435600
     30 CAB         -6.0540    -0.8490    -2.2140 c3         1 75Q      -0.151400
     31 H1           7.5500    -0.7310    -0.5940 h1         1 75Q       0.051200
     32 H2           7.4950    -0.4330     1.1430 h1         1 75Q       0.051200
     33 H3           9.3280     0.8370     0.1740 h1         1 75Q       0.062950
     34 H4           8.2710     1.5570    -1.0340 h1         1 75Q       0.062950
     35 H5           8.1930     2.0220     1.8440 hn         1 75Q       0.348800
     36 H7           6.4200     3.5040     1.4580 h1         1 75Q       0.062950
     37 H8           6.5350     3.1620    -0.2630 h1         1 75Q       0.062950
     38 H9           5.5760     1.2780     1.9360 h1         1 75Q       0.051200
     39 H10          4.6540     1.9990     0.6180 h1         1 75Q       0.051200
     40 H11          3.2960     0.5980     0.5000 ha         1 75Q       0.142000
     41 H12          4.9210    -3.1610    -2.1200 h4         1 75Q       0.018100
     42 H13          2.4870    -2.9330    -1.7930 ha         1 75Q       0.145000
     43 H14          0.8710    -3.0380    -0.1020 ha         1 75Q       0.156500
     44 H15          1.3190     1.2110    -0.5230 ha         1 75Q       0.156500
     45 H16         -3.2170     0.1500    -1.4490 h1         1 75Q       0.048200
     46 H17         -3.8060    -1.4390    -0.9680 h1         1 75Q       0.048200
     47 H18         -4.2120     1.2280     1.5390 ha         1 75Q       0.153000
     48 H19         -6.4030     2.2220     2.0920 ha         1 75Q       0.141000
     49 H20         -8.9960     2.6530    -0.0730 hc         1 75Q       0.050367
     50 H21         -9.5090     1.1360     0.6480 hc         1 75Q       0.050367
     51 H22         -8.7760     2.3900     1.6550 hc         1 75Q       0.050367
     52 H23         -5.7600    -1.8760    -1.9840 hc         1 75Q       0.051700
     53 H24         -7.0300    -0.8750    -2.6930 hc         1 75Q       0.051700
     54 H25         -5.3310    -0.4670    -2.9380 hc         1 75Q       0.051700
@<TRIPOS>BOND
     1     1     2 1   
     2     1     6 1   
     3     1    31 1   
     4     1    32 1   
     5     2     3 1   
     6     2    33 1   
     7     2    34 1   
     8     3     4 1   
     9     3    35 1   
    10     4     5 1   
    11     4    36 1   
    12     4    37 1   
    13     5     6 1   
    14     5    38 1   
    15     5    39 1   
    16     6     7 1   
    17     7     8 ar  
    18     7     9 ar  
    19     8    12 ar  
    20     8    40 1   
    21     9    10 ar  
    22    10    11 ar  
    23    10    41 1   
    24    11    12 ar  
    25    11    42 1   
    26    12    13 1   
    27    13    14 ar  
    28    13    17 ar  
    29    14    15 ar  
    30    14    43 1   
    31    15    16 1   
    32    15    20 ar  
    33    17    18 ar  
    34    17    44 1   
    35    18    19 1   
    36    18    20 ar  
    37    20    21 1   
    38    21    22 1   
    39    22    23 1   
    40    22    45 1   
    41    22    46 1   
    42    23    24 ar  
    43    23    29 ar  
    44    24    25 ar  
    45    24    47 1   
    46    25    26 ar  
    47    25    48 1   
    48    26    27 1   
    49    26    28 ar  
    50    27    49 1   
    51    27    50 1   
    52    27    51 1   
    53    28    29 ar  
    54    29    30 1   
    55    30    52 1   
    56    30    53 1   
    57    30    54 1   
@<TRIPOS>SUBSTRUCTURE
     1 75Q         1 TEMP              0 ****  ****    0 ROOT
