@<TRIPOS>MOLECULE
75R
   54    57     1     0     0
SMALL
No Charge or Current Charge


@<TRIPOS>ATOM
      1 CAN          7.3770     0.1630     0.1730 c6         1 75R       0.179800
      2 CAL          8.2600    -0.9810     0.7720 c6         1 75R       0.136800
      3 NAS          8.2180    -2.2330    -0.0370 n7         1 75R      -0.839400
      4 CAM          6.8090    -2.6860    -0.2260 c6         1 75R       0.136800
      5 CAO          5.8960    -1.5810    -0.8520 c6         1 75R       0.179800
      6 NBD          5.9700    -0.2800    -0.1120 nh         1 75R      -0.777300
      7 CBA          4.9200     0.6530    -0.2330 ca         1 75R       0.622900
      8 CAK          3.5750     0.2710    -0.0960 ca         1 75R      -0.212000
      9 NAR          5.2960     1.9220    -0.4680 nb         1 75R      -0.748000
     10 CAF          4.3270     2.8510    -0.5880 ca         1 75R       0.386900
     11 CAH          2.9620     2.5540    -0.4730 ca         1 75R      -0.212000
     12 CAY          2.5450     1.2290    -0.2180 cp         1 75R       0.033000
     13 CAZ          1.0990     0.8640    -0.0790 cp         1 75R      -0.028000
     14 CAJ          0.1650     1.7710     0.4790 ca         1 75R      -0.081000
     15 CAW         -1.1910     1.4300     0.6120 ca         1 75R       0.096500
     16 Cl1         -2.3000     2.6040     1.3230 cl         1 75R      -0.177000
     17 CAI          0.6210    -0.4050    -0.4920 ca         1 75R      -0.081000
     18 CAV         -0.7350    -0.7530    -0.3660 ca         1 75R       0.096500
     19 Cl2         -1.2290    -2.3730    -0.8650 cl         1 75R      -0.177000
     20 CBC         -1.6550     0.1720     0.1780 ca         1 75R       0.126100
     21 OAT         -2.9930    -0.1380     0.3190 os         1 75R      -0.342100
     22 CAP         -3.8340    -0.2190    -0.8430 c3         1 75R       0.217900
     23 CBB         -5.2750    -0.4410    -0.3820 ca         1 75R      -0.147300
     24 CAU         -6.1980     0.6300    -0.3060 ca         1 75R      -0.010300
     25 CAA         -5.8260     2.0640    -0.6700 c3         1 75R      -0.058800
     26 CAG         -7.5050     0.3440     0.1240 ca         1 75R      -0.180000
     27 CAE         -7.8510    -0.9700     0.4640 ca         1 75R       0.355900
     28 NAQ         -6.9770    -1.9950     0.4010 nb         1 75R      -0.682000
     29 CAX         -5.7150    -1.7360    -0.0100 ca         1 75R       0.389300
     30 CAB         -4.7970    -2.9490    -0.0430 c3         1 75R      -0.151400
     31 H1           7.3800     0.9980     0.8890 h1         1 75R       0.050700
     32 H2           7.8460     0.5260    -0.7530 h1         1 75R       0.050700
     33 H3           9.2990    -0.6270     0.8590 h1         1 75R       0.062700
     34 H4           7.9070    -1.1970     1.7920 h1         1 75R       0.062700
     35 H5           8.6130    -2.0250    -0.9640 hn         1 75R       0.403000
     36 H7           6.7880    -3.5790    -0.8680 h1         1 75R       0.062700
     37 H8           6.3890    -2.9780     0.7480 h1         1 75R       0.062700
     38 H9           6.2010    -1.4240    -1.8980 h1         1 75R       0.050700
     39 H10          4.8670    -1.9680    -0.8780 h1         1 75R       0.050700
     40 H11          3.3340    -0.7600     0.1350 ha         1 75R       0.125000
     41 H12          4.6560     3.8710    -0.7850 h4         1 75R       0.017100
     42 H13          2.2380     3.3530    -0.5950 ha         1 75R       0.126000
     43 H14          0.4950     2.7460     0.8270 ha         1 75R       0.137500
     44 H15          1.3060    -1.1280    -0.9250 ha         1 75R       0.137500
     45 H16         -3.7530     0.7030    -1.4320 h1         1 75R       0.045700
     46 H17         -3.5250    -1.0370    -1.5030 h1         1 75R       0.045700
     47 H18         -5.6070     2.1550    -1.7400 hc         1 75R       0.049700
     48 H19         -6.6380     2.7650    -0.4410 hc         1 75R       0.049700
     49 H20         -4.9440     2.3980    -0.1120 hc         1 75R       0.049700
     50 H21         -8.2530     1.1280     0.1980 ha         1 75R       0.122000
     51 H22         -8.8590    -1.2100     0.7990 h4         1 75R       0.018100
     52 H23         -4.4460    -3.1490    -1.0620 hc         1 75R       0.055700
     53 H24         -3.9220    -2.7940     0.5970 hc         1 75R       0.055700
     54 H25         -5.3020    -3.8560     0.3110 hc         1 75R       0.055700
@<TRIPOS>BOND
     1     1     2 1   
     2     1     6 1   
     3     1    31 1   
     4     1    32 1   
     5     2     3 1   
     6     2    33 1   
     7     2    34 1   
     8     3     4 1   
     9     3    35 1   
    10     4     5 1   
    11     4    36 1   
    12     4    37 1   
    13     5     6 1   
    14     5    38 1   
    15     5    39 1   
    16     6     7 1   
    17     7     8 ar  
    18     7     9 ar  
    19     8    12 ar  
    20     8    40 1   
    21     9    10 ar  
    22    10    11 ar  
    23    10    41 1   
    24    11    12 ar  
    25    11    42 1   
    26    12    13 1   
    27    13    14 ar  
    28    13    17 ar  
    29    14    15 ar  
    30    14    43 1   
    31    15    16 1   
    32    15    20 ar  
    33    17    18 ar  
    34    17    44 1   
    35    18    19 1   
    36    18    20 ar  
    37    20    21 1   
    38    21    22 1   
    39    22    23 1   
    40    22    45 1   
    41    22    46 1   
    42    23    24 ar  
    43    23    29 ar  
    44    24    25 1   
    45    24    26 ar  
    46    25    47 1   
    47    25    48 1   
    48    25    49 1   
    49    26    27 ar  
    50    26    50 1   
    51    27    28 ar  
    52    27    51 1   
    53    28    29 ar  
    54    29    30 1   
    55    30    52 1   
    56    30    53 1   
    57    30    54 1   
@<TRIPOS>SUBSTRUCTURE
     1 75R         1 TEMP              0 ****  ****    0 ROOT
