@<TRIPOS>MOLECULE
75R
   54    57     1     0     0
SMALL
bcc


@<TRIPOS>ATOM
      1 CAN          7.2680     0.2130    -0.2230 c6         1 75R       0.179800
      2 CAL          8.1850    -0.7090     0.5720 c6         1 75R       0.136800
      3 NAS          8.0920    -2.1090     0.1980 n7         1 75R      -0.784200
      4 CAM          6.7100    -2.5450     0.2480 c6         1 75R       0.136800
      5 CAO          5.7610    -1.6630    -0.5550 c6         1 75R       0.179800
      6 NBD          5.8980    -0.2700    -0.1650 nh         1 75R      -0.777300
      7 CBA          4.8590     0.6140    -0.2800 ca         1 75R       0.688200
      8 CAK          3.5150     0.1960    -0.1870 ca         1 75R      -0.295300
      9 NAR          5.1660     1.9020    -0.4360 nb         1 75R      -0.748000
     10 CAF          4.1840     2.7910    -0.5170 ca         1 75R       0.452200
     11 CAH          2.8430     2.4770    -0.4550 ca         1 75R      -0.295300
     12 CAY          2.5010     1.1320    -0.2730 cp         1 75R       0.033000
     13 CAZ          1.0880     0.7240    -0.1490 cp         1 75R      -0.028000
     14 CAJ          0.1690     1.5580     0.4820 ca         1 75R      -0.099000
     15 CAW         -1.1510     1.1670     0.6050 ca         1 75R       0.004900
     16 CL1         -2.2680     2.2030     1.4140 cl         1 75R      -0.085400
     17 CAI          0.6540    -0.5030    -0.6420 ca         1 75R      -0.099000
     18 CAV         -0.6710    -0.8780    -0.5080 ca         1 75R       0.004900
     19 CL2         -1.1740    -2.4170    -1.1010 cl         1 75R      -0.085400
     20 CBC         -1.6070    -0.0570     0.1200 ca         1 75R       0.126100
     21 OAT         -2.8890    -0.4300     0.2860 os         1 75R      -0.318900
     22 CAP         -3.7590    -0.1630    -0.8330 c3         1 75R       0.194700
     23 CBB         -5.1740    -0.3770    -0.3870 ca         1 75R      -0.212600
     24 CAU         -6.0440     0.7000    -0.1920 ca         1 75R      -0.010300
     25 CAA         -5.6470     2.1230    -0.4540 c3         1 75R      -0.058800
     26 CAG         -7.3300     0.4190     0.2600 ca         1 75R      -0.263300
     27 CAE         -7.6910    -0.8930     0.4940 ca         1 75R       0.421200
     28 NAQ         -6.8770    -1.9210     0.2920 nb         1 75R      -0.682000
     29 CAX         -5.6430    -1.6770    -0.1430 ca         1 75R       0.454600
     30 CAB         -4.7740    -2.8810    -0.3580 c3         1 75R      -0.151400
     31 H1           7.3150     1.2170     0.1890 h1         1 75R       0.050700
     32 H2           7.6110     0.2780    -1.2660 h1         1 75R       0.050700
     33 H3           9.2160    -0.3720     0.4540 h1         1 75R       0.062700
     34 H4           7.9340    -0.6240     1.6340 h1         1 75R       0.062700
     35 H5           8.4420    -2.2250    -0.7470 hn         1 75R       0.347800
     36 H7           6.6350    -3.5710    -0.1190 h1         1 75R       0.062700
     37 H8           6.3880    -2.5520     1.2940 h1         1 75R       0.062700
     38 H9           5.9810    -1.7720    -1.6270 h1         1 75R       0.050700
     39 H10          4.7440    -2.0150    -0.4020 h1         1 75R       0.050700
     40 H11          3.2680    -0.8380     0.0050 ha         1 75R       0.143000
     41 H12          4.4900     3.8230    -0.6520 h4         1 75R       0.017100
     42 H13          2.0960     3.2500    -0.5650 ha         1 75R       0.144000
     43 H14          0.4810     2.5060     0.8980 ha         1 75R       0.155500
     44 H15          1.3400    -1.1630    -1.1560 ha         1 75R       0.155500
     45 H16         -3.6020     0.8600    -1.1780 h1         1 75R       0.045700
     46 H17         -3.5010    -0.8290    -1.6610 h1         1 75R       0.045700
     47 H18         -5.2960     2.2650    -1.4760 hc         1 75R       0.049700
     48 H19         -6.4890     2.7940    -0.2960 hc         1 75R       0.049700
     49 H20         -4.8410     2.4380     0.2090 hc         1 75R       0.049700
     50 H21         -8.0440     1.2150     0.4250 ha         1 75R       0.140000
     51 H22         -8.6870    -1.1290     0.8520 h4         1 75R       0.018100
     52 H23         -4.2980    -2.8670    -1.3390 hc         1 75R       0.055700
     53 H24         -3.9740    -2.9360     0.3790 hc         1 75R       0.055700
     54 H25         -5.3730    -3.7850    -0.2820 hc         1 75R       0.055700
@<TRIPOS>BOND
     1     1     2 1   
     2     1     6 1   
     3     1    31 1   
     4     1    32 1   
     5     2     3 1   
     6     2    33 1   
     7     2    34 1   
     8     3     4 1   
     9     3    35 1   
    10     4     5 1   
    11     4    36 1   
    12     4    37 1   
    13     5     6 1   
    14     5    38 1   
    15     5    39 1   
    16     6     7 1   
    17     7     8 ar  
    18     7     9 ar  
    19     8    12 ar  
    20     8    40 1   
    21     9    10 ar  
    22    10    11 ar  
    23    10    41 1   
    24    11    12 ar  
    25    11    42 1   
    26    12    13 1   
    27    13    14 ar  
    28    13    17 ar  
    29    14    15 ar  
    30    14    43 1   
    31    15    16 1   
    32    15    20 ar  
    33    17    18 ar  
    34    17    44 1   
    35    18    19 1   
    36    18    20 ar  
    37    20    21 1   
    38    21    22 1   
    39    22    23 1   
    40    22    45 1   
    41    22    46 1   
    42    23    24 ar  
    43    23    29 ar  
    44    24    25 1   
    45    24    26 ar  
    46    25    47 1   
    47    25    48 1   
    48    25    49 1   
    49    26    27 ar  
    50    26    50 1   
    51    27    28 ar  
    52    27    51 1   
    53    28    29 ar  
    54    29    30 1   
    55    30    52 1   
    56    30    53 1   
    57    30    54 1   
@<TRIPOS>SUBSTRUCTURE
     1 75R         1 TEMP              0 ****  ****    0 ROOT
