@<TRIPOS>MOLECULE
75S
   51    54     1     0     0
SMALL
bcc


@<TRIPOS>ATOM
      1 CAN          7.0780     0.1490    -0.0870 c6         1 75S       0.175800
      2 CAL          8.0810    -0.9800     0.0970 c6         1 75S       0.138800
      3 NAS          7.8450    -2.1190    -0.7720 n7         1 75S      -0.786200
      4 CAM          6.4790    -2.5780    -0.6210 c6         1 75S       0.138800
      5 CAO          5.4220    -1.4930    -0.8040 c6         1 75S       0.175800
      6 NBC          5.7120    -0.3430     0.0330 nh         1 75S      -0.770300
      7 CBA          4.7180     0.5210     0.4070 ca         1 75S       0.686200
      8 CAK          3.3590     0.2780     0.1210 ca         1 75S      -0.305300
      9 NAR          5.0870     1.6170     1.0760 nb         1 75S      -0.743000
     10 CAF          4.1560     2.4570     1.4990 ca         1 75S       0.454200
     11 CAH          2.8010     2.2890     1.2940 ca         1 75S      -0.296300
     12 CAX          2.3950     1.1620     0.5760 cp         1 75S       0.034000
     13 CAY          0.9680     0.9190     0.2880 cp         1 75S      -0.027000
     14 CAJ          0.4540    -0.3750     0.2940 ca         1 75S      -0.099000
     15 CAV         -0.8840    -0.5900     0.0200 ca         1 75S       0.005900
     16 CL2         -1.5220    -2.1910     0.0360 cl         1 75S      -0.081400
     17 CAI          0.1180     1.9850     0.0020 ca         1 75S      -0.099000
     18 CAU         -1.2180     1.7510    -0.2720 ca         1 75S       0.005900
     19 CL1         -2.2610     3.0700    -0.6510 cl         1 75S      -0.081400
     20 CBB         -1.7460     0.4630    -0.2800 ca         1 75S       0.121100
     21 OAT         -3.0340     0.2340    -0.5900 os         1 75S      -0.321900
     22 CAP         -3.9420     0.2310     0.5080 c3         1 75S       0.193700
     23 CAZ         -5.2030    -0.4740     0.1060 ca         1 75S      -0.206600
     24 CAG         -5.2640    -1.3120    -0.9970 ca         1 75S      -0.063000
     25 CAD         -6.4590    -1.9500    -1.3000 ca         1 75S      -0.254300
     26 CAE         -7.5470    -1.7260    -0.4770 ca         1 75S       0.409200
     27 NAQ         -7.4980    -0.9340     0.5890 nb         1 75S      -0.675000
     28 CAW         -6.3590    -0.3190     0.8850 ca         1 75S       0.426600
     29 CAA         -6.3530     0.5540     2.1040 c3         1 75S      -0.151400
     30 H1           7.2490     0.9220     0.6560 h1         1 75S       0.050700
     31 H2           7.2240     0.6050    -1.0780 h1         1 75S       0.050700
     32 H3           9.0860    -0.5930    -0.0780 h1         1 75S       0.062950
     33 H4           8.0460    -1.3290     1.1340 h1         1 75S       0.062950
     34 H5           8.0060    -1.8460    -1.7360 hn         1 75S       0.349800
     35 H7           6.2810    -3.3820    -1.3330 h1         1 75S       0.062950
     36 H8           6.3730    -3.0030     0.3820 h1         1 75S       0.062950
     37 H9           5.3650    -1.1990    -1.8620 h1         1 75S       0.050700
     38 H10          4.4590    -1.9220    -0.5330 h1         1 75S       0.050700
     39 H11          3.0570    -0.5670    -0.4790 ha         1 75S       0.142000
     40 H12          4.5130     3.3250     2.0440 h4         1 75S       0.018100
     41 H13          2.0930     3.0030     1.6920 ha         1 75S       0.145000
     42 H14          1.0890    -1.2180     0.5340 ha         1 75S       0.156500
     43 H15          0.4960     2.9980    -0.0230 ha         1 75S       0.156500
     44 H16         -3.4950    -0.2700     1.3740 h1         1 75S       0.049200
     45 H17         -4.1550     1.2620     0.8080 h1         1 75S       0.049200
     46 H18         -4.3950    -1.4730    -1.6200 ha         1 75S       0.154000
     47 H19         -6.5400    -2.6070    -2.1550 ha         1 75S       0.143000
     48 H20         -8.4990    -2.2040    -0.6810 h4         1 75S       0.019100
     49 H21         -5.6090     0.2230     2.8320 hc         1 75S       0.052033
     50 H22         -6.1140     1.5910     1.8560 hc         1 75S       0.052033
     51 H23         -7.3280     0.5370     2.5860 hc         1 75S       0.052033
@<TRIPOS>BOND
     1     1     2 1   
     2     1     6 1   
     3     1    30 1   
     4     1    31 1   
     5     2     3 1   
     6     2    32 1   
     7     2    33 1   
     8     3     4 1   
     9     3    34 1   
    10     4     5 1   
    11     4    35 1   
    12     4    36 1   
    13     5     6 1   
    14     5    37 1   
    15     5    38 1   
    16     6     7 1   
    17     7     8 ar  
    18     7     9 ar  
    19     8    12 ar  
    20     8    39 1   
    21     9    10 ar  
    22    10    11 ar  
    23    10    40 1   
    24    11    12 ar  
    25    11    41 1   
    26    12    13 1   
    27    13    14 ar  
    28    13    17 ar  
    29    14    15 ar  
    30    14    42 1   
    31    15    16 1   
    32    15    20 ar  
    33    17    18 ar  
    34    17    43 1   
    35    18    19 1   
    36    18    20 ar  
    37    20    21 1   
    38    21    22 1   
    39    22    23 1   
    40    22    44 1   
    41    22    45 1   
    42    23    24 ar  
    43    23    28 ar  
    44    24    25 ar  
    45    24    46 1   
    46    25    26 ar  
    47    25    47 1   
    48    26    27 ar  
    49    26    48 1   
    50    27    28 ar  
    51    28    29 1   
    52    29    49 1   
    53    29    50 1   
    54    29    51 1   
@<TRIPOS>SUBSTRUCTURE
     1 75S         1 TEMP              0 ****  ****    0 ROOT
