@<TRIPOS>MOLECULE
75S
   51    54     1     0     0
SMALL
No Charge or Current Charge


@<TRIPOS>ATOM
      1 CAN          7.0650     0.5460    -0.3490 c6         1 75S       0.175800
      2 CAL          8.3170    -0.3620    -0.5820 c6         1 75S       0.138800
      3 NAS          8.0560    -1.4760    -1.5380 n7         1 75S      -0.841400
      4 CAM          6.8920    -2.2890    -1.0830 c6         1 75S       0.138800
      5 CAO          5.6010    -1.4340    -0.8630 c6         1 75S       0.175800
      6 NBC          5.8320    -0.2370     0.0100 nh         1 75S      -0.770300
      7 CBA          4.7610     0.3760     0.6960 ca         1 75S       0.620900
      8 CAK          3.4120     0.1410     0.3700 ca         1 75S      -0.222000
      9 NAR          5.1320     1.1980     1.6910 nb         1 75S      -0.743000
     10 CAF          4.1620     1.8150     2.3960 ca         1 75S       0.388900
     11 CAH          2.7970     1.6360     2.1360 ca         1 75S      -0.213000
     12 CAX          2.3810     0.7770     1.0960 cp         1 75S       0.034000
     13 CAY          0.9340     0.5570     0.7800 cp         1 75S      -0.027000
     14 CAJ          0.4720    -0.6940     0.2990 ca         1 75S      -0.081000
     15 CAV         -0.8850    -0.9030     0.0010 ca         1 75S       0.097500
     16 Cl2         -1.4020    -2.4850    -0.5830 cl         1 75S      -0.173000
     17 CAI         -0.0180     1.5930     0.9480 ca         1 75S      -0.081000
     18 CAU         -1.3780     1.3920     0.6530 ca         1 75S       0.097500
     19 Cl1         -2.4970     2.7400     0.8590 cl         1 75S      -0.173000
     20 CBB         -1.8190     0.1360     0.1820 ca         1 75S       0.121100
     21 OAT         -3.1470    -0.0840    -0.1160 os         1 75S      -0.345100
     22 CAP         -4.0730    -0.3290     0.9520 c3         1 75S       0.216900
     23 CAZ         -5.4190    -0.7000     0.3440 ca         1 75S      -0.141300
     24 CAG         -5.7870    -2.0550     0.2430 ca         1 75S      -0.045000
     25 CAD         -7.0310    -2.3710    -0.3220 ca         1 75S      -0.171000
     26 CAE         -7.8640    -1.3340    -0.7670 ca         1 75S       0.343900
     27 NAQ         -7.5190    -0.0290    -0.6790 nb         1 75S      -0.675000
     28 CAW         -6.3190     0.2820    -0.1360 ca         1 75S       0.361300
     29 CAA         -6.0000     1.7690    -0.0810 c3         1 75S      -0.151400
     30 H1           7.3250     1.2690     0.4370 h1         1 75S       0.050700
     31 H2           6.8750     1.1250    -1.2640 h1         1 75S       0.050700
     32 H3           9.1490     0.2570    -0.9490 h1         1 75S       0.062950
     33 H4           8.6300    -0.7820     0.3860 h1         1 75S       0.062950
     34 H5           7.8210    -1.0640    -2.4510 hn         1 75S       0.405000
     35 H7           6.6810    -3.0810    -1.8170 h1         1 75S       0.062950
     36 H8           7.1480    -2.7870    -0.1360 h1         1 75S       0.062950
     37 H9           5.2200    -1.1090    -1.8430 h1         1 75S       0.050700
     38 H10          4.8400    -2.0910    -0.4180 h1         1 75S       0.050700
     39 H11          3.1600    -0.5090    -0.4580 ha         1 75S       0.124000
     40 H12          4.4910     2.4730     3.1990 h4         1 75S       0.018100
     41 H13          2.0720     2.1560     2.7550 ha         1 75S       0.127000
     42 H14          1.1680    -1.5180     0.1680 ha         1 75S       0.138500
     43 H15          0.3010     2.5720     1.2950 ha         1 75S       0.138500
     44 H16         -3.7170    -1.1570     1.5800 h1         1 75S       0.049200
     45 H17         -4.1760     0.5510     1.5980 h1         1 75S       0.049200
     46 H18         -5.1230    -2.8450     0.5920 ha         1 75S       0.136000
     47 H19         -7.3520    -3.4050    -0.4170 ha         1 75S       0.125000
     48 H20         -8.8360    -1.5520    -1.2090 h4         1 75S       0.019100
     49 H21         -5.8500     2.1000     0.9530 hc         1 75S       0.052033
     50 H22         -5.0890     1.9920    -0.6470 hc         1 75S       0.052033
     51 H23         -6.8070     2.3780    -0.5060 hc         1 75S       0.052033
@<TRIPOS>BOND
     1     1     2 1   
     2     1     6 1   
     3     1    30 1   
     4     1    31 1   
     5     2     3 1   
     6     2    32 1   
     7     2    33 1   
     8     3     4 1   
     9     3    34 1   
    10     4     5 1   
    11     4    35 1   
    12     4    36 1   
    13     5     6 1   
    14     5    37 1   
    15     5    38 1   
    16     6     7 1   
    17     7     8 ar  
    18     7     9 ar  
    19     8    12 ar  
    20     8    39 1   
    21     9    10 ar  
    22    10    11 ar  
    23    10    40 1   
    24    11    12 ar  
    25    11    41 1   
    26    12    13 1   
    27    13    14 ar  
    28    13    17 ar  
    29    14    15 ar  
    30    14    42 1   
    31    15    16 1   
    32    15    20 ar  
    33    17    18 ar  
    34    17    43 1   
    35    18    19 1   
    36    18    20 ar  
    37    20    21 1   
    38    21    22 1   
    39    22    23 1   
    40    22    44 1   
    41    22    45 1   
    42    23    24 ar  
    43    23    28 ar  
    44    24    25 ar  
    45    24    46 1   
    46    25    26 ar  
    47    25    47 1   
    48    26    27 ar  
    49    26    48 1   
    50    27    28 ar  
    51    28    29 1   
    52    29    49 1   
    53    29    50 1   
    54    29    51 1   
@<TRIPOS>SUBSTRUCTURE
     1 75S         1 TEMP              0 ****  ****    0 ROOT
