@<TRIPOS>MOLECULE
75T
   53    56     1     0     0
SMALL
No Charge or Current Charge


@<TRIPOS>ATOM
      1 CAO         -6.2890     0.3050     1.4100 c6         1 75T      -0.069900
      2 CAM         -7.3640     1.4100     1.5510 c6         1 75T       0.158800
      3 NAS         -8.2030     1.5060     0.3320 n7         1 75T      -0.862400
      4 CAN         -7.4070     1.7570    -0.8930 c6         1 75T       0.158800
      5 CAP         -6.3330     0.6610    -1.1020 c6         1 75T      -0.069900
      6 CBA         -5.4170     0.5310     0.1450 c6         1 75T      -0.016400
      7 CAX         -4.3500    -0.5620    -0.0290 ca         1 75T      -0.072300
      8 CAL         -2.9820    -0.2230    -0.0070 ca         1 75T      -0.100000
      9 CAF         -4.7190    -1.9090    -0.2150 ca         1 75T      -0.103000
     10 CAC         -3.7350    -2.8970    -0.3760 ca         1 75T      -0.111000
     11 CAE         -2.3760    -2.5480    -0.3540 ca         1 75T      -0.104000
     12 CAW         -1.9700    -1.2030    -0.1680 cp         1 75T      -0.026000
     13 CAV         -0.5200    -0.8290    -0.1420 cp         1 75T      -0.068000
     14 CAK          0.4230    -1.4950    -0.9660 ca         1 75T      -0.062500
     15 CAI          1.7850    -1.1460    -0.9440 ca         1 75T      -0.172000
     16 CAJ         -0.0440     0.2010     0.7070 ca         1 75T      -0.062500
     17 CAH          1.3170     0.5500     0.7300 ca         1 75T      -0.172000
     18 CAU          2.2370    -0.1170    -0.0920 ca         1 75T       0.146100
     19 OAT          3.5590     0.2690    -0.0240 os         1 75T      -0.347100
     20 CAQ          4.5820    -0.3590    -0.8140 c3         1 75T       0.216900
     21 CAZ          5.9150     0.2950    -0.4780 ca         1 75T      -0.141300
     22 CAG          6.4370     1.2920    -1.3240 ca         1 75T      -0.046000
     23 CAB          7.6680     1.8770    -0.9890 ca         1 75T      -0.170000
     24 CAD          8.3340     1.4520     0.1700 ca         1 75T       0.343900
     25 NAR          7.8410     0.4980     0.9910 nb         1 75T      -0.673000
     26 CAY          6.6530    -0.0690     0.6740 ca         1 75T       0.359300
     27 CAA          6.1640    -1.1330     1.6460 c3         1 75T      -0.151400
     28 H1          -5.6530     0.2930     2.3060 hc         1 75T       0.049950
     29 H2          -6.7820    -0.6750     1.3640 hc         1 75T       0.049950
     30 H3          -8.0030     1.1940     2.4200 h1         1 75T       0.028200
     31 H4          -6.8730     2.3780     1.7330 h1         1 75T       0.028200
     32 H5          -8.8770     2.2730     0.4530 hn         1 75T       0.409000
     33 H7          -8.0770     1.7880    -1.7650 h1         1 75T       0.028200
     34 H8          -6.9180     2.7400    -0.8150 h1         1 75T       0.028200
     35 H9          -6.8290    -0.2950    -1.3140 hc         1 75T       0.049950
     36 H10         -5.7290     0.9020    -1.9870 hc         1 75T       0.049950
     37 H11         -4.9040     1.4950     0.2730 hc         1 75T       0.045700
     38 H12         -2.6970     0.8180     0.1220 ha         1 75T       0.111000
     39 H13         -5.7680    -2.1950    -0.2350 ha         1 75T       0.116000
     40 H14         -4.0270    -3.9360    -0.5160 ha         1 75T       0.112000
     41 H15         -1.6300    -3.3310    -0.4670 ha         1 75T       0.113000
     42 H16          0.0940    -2.2810    -1.6400 ha         1 75T       0.115500
     43 H17          2.4690    -1.6820    -1.5970 ha         1 75T       0.122000
     44 H18         -0.7320     0.7260     1.3640 ha         1 75T       0.115500
     45 H19          1.6620     1.3410     1.3910 ha         1 75T       0.122000
     46 H20          4.6310    -1.4360    -0.6050 h1         1 75T       0.044700
     47 H21          4.3710    -0.2350    -1.8840 h1         1 75T       0.044700
     48 H22          5.9020     1.6070    -2.2180 ha         1 75T       0.135000
     49 H23          8.1050     2.6490    -1.6160 ha         1 75T       0.125000
     50 H24          9.2920     1.8890     0.4520 h4         1 75T       0.019100
     51 H25          6.1310    -2.1170     1.1640 hc         1 75T       0.052033
     52 H26          6.8160    -1.2190     2.5240 hc         1 75T       0.052033
     53 H27          5.1570    -0.9000     2.0100 hc         1 75T       0.052033
@<TRIPOS>BOND
     1     1     2 1   
     2     1     6 1   
     3     1    28 1   
     4     1    29 1   
     5     2     3 1   
     6     2    30 1   
     7     2    31 1   
     8     3     4 1   
     9     3    32 1   
    10     4     5 1   
    11     4    33 1   
    12     4    34 1   
    13     5     6 1   
    14     5    35 1   
    15     5    36 1   
    16     6     7 1   
    17     6    37 1   
    18     7     8 ar  
    19     7     9 ar  
    20     8    12 ar  
    21     8    38 1   
    22     9    10 ar  
    23     9    39 1   
    24    10    11 ar  
    25    10    40 1   
    26    11    12 ar  
    27    11    41 1   
    28    12    13 1   
    29    13    14 ar  
    30    13    16 ar  
    31    14    15 ar  
    32    14    42 1   
    33    15    18 ar  
    34    15    43 1   
    35    16    17 ar  
    36    16    44 1   
    37    17    18 ar  
    38    17    45 1   
    39    18    19 1   
    40    19    20 1   
    41    20    21 1   
    42    20    46 1   
    43    20    47 1   
    44    21    22 ar  
    45    21    26 ar  
    46    22    23 ar  
    47    22    48 1   
    48    23    24 ar  
    49    23    49 1   
    50    24    25 ar  
    51    24    50 1   
    52    25    26 ar  
    53    26    27 1   
    54    27    51 1   
    55    27    52 1   
    56    27    53 1   
@<TRIPOS>SUBSTRUCTURE
     1 75T         1 TEMP              0 ****  ****    0 ROOT
