@<TRIPOS>MOLECULE
75T
   53    56     1     0     0
SMALL
bcc


@<TRIPOS>ATOM
      1 CAO         -6.4410     0.6700     1.0720 c6         1 75T      -0.069900
      2 CAM         -7.5090     1.6940     0.7160 c6         1 75T       0.158800
      3 NAS         -8.1420     1.3360    -0.5410 n7         1 75T      -0.807200
      4 CAN         -7.1890     1.3310    -1.6360 c6         1 75T       0.158800
      5 CAP         -6.1070     0.2920    -1.3800 c6         1 75T      -0.069900
      6 CBA         -5.4010     0.5590    -0.0460 c6         1 75T      -0.016400
      7 CAX         -4.3440    -0.4750     0.2430 ca         1 75T      -0.072300
      8 CAL         -2.9960    -0.1340     0.2080 ca         1 75T      -0.118000
      9 CAF         -4.6850    -1.7990     0.5200 ca         1 75T      -0.121000
     10 CAC         -3.6980    -2.7430     0.7620 ca         1 75T      -0.129000
     11 CAE         -2.3580    -2.3850     0.7290 ca         1 75T      -0.122000
     12 CAW         -1.9870    -1.0710     0.4460 cp         1 75T      -0.026000
     13 CAV         -0.5650    -0.6800     0.3950 cp         1 75T      -0.068000
     14 CAK          0.4040    -1.5500    -0.0960 ca         1 75T      -0.080500
     15 CAI          1.7470    -1.1990    -0.1500 ca         1 75T      -0.190000
     16 CAJ         -0.1390     0.5780     0.8330 ca         1 75T      -0.080500
     17 CAH          1.1910     0.9450     0.7860 ca         1 75T      -0.190000
     18 CAU          2.1480     0.0570     0.2930 ca         1 75T       0.146100
     19 OAT          3.4230     0.4980     0.2830 os         1 75T      -0.323900
     20 CAQ          4.4330    -0.3750    -0.1610 c3         1 75T       0.193700
     21 CAZ          5.7650     0.3090    -0.0630 ca         1 75T      -0.206600
     22 CAG          5.9140     1.6090     0.3940 ca         1 75T      -0.064000
     23 CAB          7.1830     2.1670     0.4500 ca         1 75T      -0.253300
     24 CAD          8.2560     1.3980     0.0420 ca         1 75T       0.409200
     25 NAR          8.1270     0.1510    -0.3980 nb         1 75T      -0.673000
     26 CAY          6.9160    -0.3920    -0.4520 ca         1 75T       0.424600
     27 CAA          6.8210    -1.8040    -0.9460 c3         1 75T      -0.151400
     28 H1          -5.9580     0.9530     2.0100 hc         1 75T       0.049950
     29 H2          -6.9200    -0.3000     1.2350 hc         1 75T       0.049950
     30 H3          -8.2700     1.7240     1.4990 h1         1 75T       0.028200
     31 H4          -7.0460     2.6950     0.6850 h1         1 75T       0.028200
     32 H5          -8.8840     1.9920    -0.7430 hn         1 75T       0.353800
     33 H7          -7.7160     1.0970    -2.5640 h1         1 75T       0.028200
     34 H8          -6.7090     2.3130    -1.7820 h1         1 75T       0.028200
     35 H9          -6.5590    -0.7050    -1.3640 hc         1 75T       0.049950
     36 H10         -5.3820     0.3030    -2.1980 hc         1 75T       0.049950
     37 H11         -4.9020     1.5330    -0.1280 hc         1 75T       0.045700
     38 H12         -2.7250     0.8870    -0.0380 ha         1 75T       0.129000
     39 H13         -5.7260    -2.1010     0.5500 ha         1 75T       0.134000
     40 H14         -3.9740    -3.7650     0.9860 ha         1 75T       0.130000
     41 H15         -1.6020    -3.1300     0.9430 ha         1 75T       0.131000
     42 H16          0.1160    -2.5250    -0.4690 ha         1 75T       0.133500
     43 H17          2.4540    -1.9140    -0.5480 ha         1 75T       0.140000
     44 H18         -0.8570     1.2810     1.2380 ha         1 75T       0.133500
     45 H19          1.5010     1.9200     1.1410 ha         1 75T       0.140000
     46 H20          4.4380    -1.2930     0.4420 h1         1 75T       0.044700
     47 H21          4.2500    -0.6800    -1.1990 h1         1 75T       0.044700
     48 H22          5.0560     2.1890     0.7050 ha         1 75T       0.153000
     49 H23          7.3340     3.1790     0.8030 ha         1 75T       0.143000
     50 H24          9.2630     1.7980     0.0690 h4         1 75T       0.019100
     51 H25          6.1410    -1.8920    -1.7960 hc         1 75T       0.052033
     52 H26          7.8000    -2.1650    -1.2540 hc         1 75T       0.052033
     53 H27          6.4440    -2.4730    -0.1690 hc         1 75T       0.052033
@<TRIPOS>BOND
     1     1     2 1   
     2     1     6 1   
     3     1    28 1   
     4     1    29 1   
     5     2     3 1   
     6     2    30 1   
     7     2    31 1   
     8     3     4 1   
     9     3    32 1   
    10     4     5 1   
    11     4    33 1   
    12     4    34 1   
    13     5     6 1   
    14     5    35 1   
    15     5    36 1   
    16     6     7 1   
    17     6    37 1   
    18     7     8 ar  
    19     7     9 ar  
    20     8    12 ar  
    21     8    38 1   
    22     9    10 ar  
    23     9    39 1   
    24    10    11 ar  
    25    10    40 1   
    26    11    12 ar  
    27    11    41 1   
    28    12    13 1   
    29    13    14 ar  
    30    13    16 ar  
    31    14    15 ar  
    32    14    42 1   
    33    15    18 ar  
    34    15    43 1   
    35    16    17 ar  
    36    16    44 1   
    37    17    18 ar  
    38    17    45 1   
    39    18    19 1   
    40    19    20 1   
    41    20    21 1   
    42    20    46 1   
    43    20    47 1   
    44    21    22 ar  
    45    21    26 ar  
    46    22    23 ar  
    47    22    48 1   
    48    23    24 ar  
    49    23    49 1   
    50    24    25 ar  
    51    24    50 1   
    52    25    26 ar  
    53    26    27 1   
    54    27    51 1   
    55    27    52 1   
    56    27    53 1   
@<TRIPOS>SUBSTRUCTURE
     1 75T         1 TEMP              0 ****  ****    0 ROOT
