@<TRIPOS>MOLECULE
75U
   54    56     1     0     0
SMALL
abcg2


@<TRIPOS>ATOM
      1 C1           2.1410    -0.9840    -0.4770 ca         1 75U      -0.062300
      2 C2           3.2550    -0.2490    -0.8760 ca         1 75U       0.136100
      3 C3           3.2160     1.1630    -0.8690 ca         1 75U      -0.084900
      4 C4           2.1110     1.8700    -0.4480 ca         1 75U      -0.058000
      5 C29         -1.0130    -4.3190    -2.5190 c3         1 75U      -0.097100
      6 C28         -1.4840    -3.8000    -1.1820 c3         1 75U       0.165600
      7 O27         -0.8110    -2.5590    -0.9370 os         1 75U      -0.430100
      8 O30         -1.7400    -2.4090     1.0900 o          1 75U      -0.513000
      9 C11         -0.3340    -0.6630     0.3000 cc         1 75U      -0.159400
     10 C10          0.9730    -0.2790    -0.1390 ca         1 75U       0.002200
     11 C31          2.2240    -2.4830    -0.3620 c3         1 75U       0.219100
     12 N32          1.5240    -2.9810     0.8070 n3         1 75U      -0.717600
     13 C34          1.4890    -4.4270     0.8040 c3         1 75U       0.149600
     14 C33          2.0840    -2.4870     2.0460 c3         1 75U       0.149600
     15 O35          4.3460    -0.9370    -1.2730 oh         1 75U      -0.537100
     16 BR5          4.7360     2.1330    -1.4400 br         1 75U      -0.102100
     17 C9           0.9990     1.1270    -0.0790 ca         1 75U      -0.085200
     18 N8          -0.2070     1.5720     0.3950 na         1 75U      -0.069700
     19 C12         -0.5720     2.9660     0.4990 c3         1 75U       0.058900
     20 C7          -1.0080     0.4950     0.6270 cd         1 75U       0.002700
     21 C13         -2.4190     0.6520     1.0610 c3         1 75U       0.091800
     22 S14         -3.4090     1.0210    -0.4240 ss         1 75U      -0.168000
     23 C18         -5.0480     1.1890     0.2000 ca         1 75U      -0.090000
     24 C17         -6.0550     1.3940    -0.7470 ca         1 75U      -0.110000
     25 C16         -7.3710     1.5420    -0.3420 ca         1 75U      -0.096000
     26 C15         -7.7060     1.4840     1.0060 ca         1 75U      -0.114000
     27 C20         -6.7060     1.2790     1.9440 ca         1 75U      -0.096000
     28 C19         -5.3810     1.1330     1.5510 ca         1 75U      -0.110000
     29 H1           2.1110     2.9510    -0.4200 ha         1 75U       0.132000
     30 H2          -1.2300    -3.6140    -3.3210 hc         1 75U       0.043700
     31 H3           0.0590    -4.5210    -2.5170 hc         1 75U       0.043700
     32 H4          -1.5270    -5.2520    -2.7460 hc         1 75U       0.043700
     33 H5          -2.5640    -3.6330    -1.1900 h1         1 75U       0.045700
     34 H6          -1.2660    -4.5140    -0.3860 h1         1 75U       0.045700
     35 H7           1.7760    -2.9440    -1.2470 h1         1 75U       0.052700
     36 H8           3.2770    -2.7950    -0.3560 h1         1 75U       0.052700
     37 H10          2.4850    -4.8830     0.9230 h1         1 75U       0.031367
     38 H11          0.8590    -4.7870     1.6170 h1         1 75U       0.031367
     39 H12          1.0720    -4.7960    -0.1340 h1         1 75U       0.031367
     40 H13          2.0180    -1.4010     2.0990 h1         1 75U       0.031367
     41 H14          1.5190    -2.8920     2.8860 h1         1 75U       0.031367
     42 H15          3.1400    -2.7710     2.1850 h1         1 75U       0.031367
     43 H16          5.1460    -0.4010    -1.2410 ho         1 75U       0.475000
     44 H17         -0.8860     3.3670    -0.4650 h1         1 75U       0.056033
     45 H18         -1.3800     3.0950     1.2120 h1         1 75U       0.056033
     46 H19          0.2780     3.5410     0.8610 h1         1 75U       0.056033
     47 H20         -2.7730    -0.2660     1.5220 h1         1 75U       0.092700
     48 H21         -2.5250     1.4570     1.7890 h1         1 75U       0.092700
     49 H22         -5.8110     1.4370    -1.8010 ha         1 75U       0.117500
     50 H23         -8.1400     1.7000    -1.0880 ha         1 75U       0.113500
     51 H24         -8.7360     1.5980     1.3180 ha         1 75U       0.115000
     52 H25         -6.9490     1.2330     2.9980 ha         1 75U       0.113500
     53 H26         -4.6260     0.9800     2.3080 ha         1 75U       0.117500
     54 C26         -0.9980    -1.9720     0.2390 c          1 75U       0.668300
@<TRIPOS>BOND
     1     1     2 ar  
     2     1    10 ar  
     3     1    11 1   
     4     2     3 ar  
     5     2    15 1   
     6     3     4 ar  
     7     3    16 1   
     8     4    17 ar  
     9     4    29 1   
    10     5     6 1   
    11     5    30 1   
    12     5    31 1   
    13     5    32 1   
    14     6     7 1   
    15     6    33 1   
    16     6    34 1   
    17     7    54 1   
    18     8    54 2   
    19     9    10 1   
    20     9    20 2   
    21     9    54 1   
    22    10    17 ar  
    23    11    12 1   
    24    11    35 1   
    25    11    36 1   
    26    12    13 1   
    27    12    14 1   
    28    13    37 1   
    29    13    38 1   
    30    13    39 1   
    31    14    40 1   
    32    14    41 1   
    33    14    42 1   
    34    15    43 1   
    35    17    18 1   
    36    18    19 1   
    37    18    20 1   
    38    19    44 1   
    39    19    45 1   
    40    19    46 1   
    41    20    21 1   
    42    21    22 1   
    43    21    47 1   
    44    21    48 1   
    45    22    23 1   
    46    23    24 ar  
    47    23    28 ar  
    48    24    25 ar  
    49    24    49 1   
    50    25    26 ar  
    51    25    50 1   
    52    26    27 ar  
    53    26    51 1   
    54    27    28 ar  
    55    27    52 1   
    56    28    53 1   
@<TRIPOS>SUBSTRUCTURE
     1 75U         1 TEMP              0 ****  ****    0 ROOT
