@<TRIPOS>MOLECULE
75U
   54    56     1     0     0
SMALL
No Charge or Current Charge


@<TRIPOS>ATOM
      1 C1           2.0920    -1.0440    -0.5180 ca         1 75U      -0.062300
      2 C2           3.2660    -0.3070    -0.8380 ca         1 75U       0.136100
      3 C3           3.2470     1.1070    -0.8610 ca         1 75U      -0.084900
      4 C4           2.0780     1.8060    -0.5260 ca         1 75U      -0.058000
      5 C29         -0.4150    -4.6360    -2.6800 c3         1 75U      -0.097100
      6 C28         -1.2580    -3.9770    -1.5760 c3         1 75U       0.165600
      7 O27         -0.5980    -2.7600    -1.1930 os         1 75U      -0.430100
      8 O30         -2.2640    -2.2620     0.2590 o          1 75U      -0.513000
      9 C11         -0.4700    -0.6950     0.0230 cc         1 75U      -0.159400
     10 C10          0.8920    -0.3040    -0.3210 ca         1 75U       0.002200
     11 C31          2.1920    -2.5620    -0.2910 c3         1 75U       0.219100
     12 N32          1.5890    -3.0320     0.9880 n3         1 75U      -0.717600
     13 C34          1.5480    -4.5060     1.0830 c3         1 75U       0.149600
     14 C33          2.2000    -2.4080     2.1840 c3         1 75U       0.149600
     15 O35          4.4480    -0.9460    -1.1000 oh         1 75U      -0.537100
     16 Br5          4.8370     2.1060    -1.2610 br         1 75U      -0.102100
     17 C9           0.9180     1.0690    -0.2480 ca         1 75U      -0.085200
     18 N8          -0.2900     1.5680     0.2110 na         1 75U      -0.069700
     19 C12         -0.5770     3.0060     0.3680 c3         1 75U       0.058900
     20 C7          -1.1310     0.4600     0.4570 cd         1 75U       0.002700
     21 C13         -2.5590     0.6350     0.9270 c3         1 75U       0.091800
     22 S14         -3.7460     0.9070    -0.4650 ss         1 75U      -0.168000
     23 C18         -5.3320     1.2480     0.3060 ca         1 75U      -0.090000
     24 C17         -6.3700     1.7400    -0.5070 ca         1 75U      -0.110000
     25 C16         -7.6320     2.0250     0.0410 ca         1 75U      -0.096000
     26 C15         -7.8660     1.8150     1.4100 ca         1 75U      -0.114000
     27 C20         -6.8370     1.3200     2.2280 ca         1 75U      -0.096000
     28 C19         -5.5730     1.0360     1.6800 ca         1 75U      -0.110000
     29 H1           2.0860     2.8920    -0.4730 ha         1 75U       0.132000
     30 H2          -0.3120    -3.9640    -3.5400 hc         1 75U       0.043700
     31 H3           0.5850    -4.8860    -2.3080 hc         1 75U       0.043700
     32 H4          -0.8940    -5.5610    -3.0210 hc         1 75U       0.043700
     33 H5          -2.2660    -3.7710    -1.9620 h1         1 75U       0.045700
     34 H6          -1.3440    -4.6620    -0.7220 h1         1 75U       0.045700
     35 H7           1.7450    -3.0730    -1.1510 h1         1 75U       0.052700
     36 H8           3.2450    -2.8700    -0.2980 h1         1 75U       0.052700
     37 H10          2.5620    -4.9250     1.1100 h1         1 75U       0.031367
     38 H11          1.0200    -4.8220     1.9930 h1         1 75U       0.031367
     39 H12          1.0210    -4.9370     0.2210 h1         1 75U       0.031367
     40 H13          2.1150    -1.3140     2.1470 h1         1 75U       0.031367
     41 H14          1.6970    -2.7500     3.0980 h1         1 75U       0.031367
     42 H15          3.2650    -2.6680     2.2600 h1         1 75U       0.031367
     43 H16          5.1260    -0.2600    -1.2840 ho         1 75U       0.475000
     44 H17         -0.1860     3.5590    -0.4950 h1         1 75U       0.056033
     45 H18         -1.6580     3.1770     0.4280 h1         1 75U       0.056033
     46 H19         -0.1000     3.3760     1.2840 h1         1 75U       0.056033
     47 H20         -2.8700    -0.2430     1.5030 h1         1 75U       0.092700
     48 H21         -2.6120     1.4960     1.6040 h1         1 75U       0.092700
     49 H22         -6.1960     1.9050    -1.5690 ha         1 75U       0.117500
     50 H23         -8.4280     2.4060    -0.5950 ha         1 75U       0.113500
     51 H24         -8.8430     2.0350     1.8360 ha         1 75U       0.115000
     52 H25         -7.0190     1.1550     3.2880 ha         1 75U       0.113500
     53 H26         -4.8000     0.6480     2.3360 ha         1 75U       0.117500
     54 C26         -1.1630    -1.9950    -0.2070 c          1 75U       0.668300
@<TRIPOS>BOND
     1     1     2 ar  
     2     1    10 ar  
     3     1    11 1   
     4     2     3 ar  
     5     2    15 1   
     6     3     4 ar  
     7     3    16 1   
     8     4    17 ar  
     9     4    29 1   
    10     5     6 1   
    11     5    30 1   
    12     5    31 1   
    13     5    32 1   
    14     6     7 1   
    15     6    33 1   
    16     6    34 1   
    17     7    54 1   
    18     8    54 2   
    19     9    10 1   
    20     9    20 2   
    21     9    54 1   
    22    10    17 ar  
    23    11    12 1   
    24    11    35 1   
    25    11    36 1   
    26    12    13 1   
    27    12    14 1   
    28    13    37 1   
    29    13    38 1   
    30    13    39 1   
    31    14    40 1   
    32    14    41 1   
    33    14    42 1   
    34    15    43 1   
    35    17    18 1   
    36    18    19 1   
    37    18    20 1   
    38    19    44 1   
    39    19    45 1   
    40    19    46 1   
    41    20    21 1   
    42    21    22 1   
    43    21    47 1   
    44    21    48 1   
    45    22    23 1   
    46    23    24 ar  
    47    23    28 ar  
    48    24    25 ar  
    49    24    49 1   
    50    25    26 ar  
    51    25    50 1   
    52    26    27 ar  
    53    26    51 1   
    54    27    28 ar  
    55    27    52 1   
    56    28    53 1   
@<TRIPOS>SUBSTRUCTURE
     1 75U         1 TEMP              0 ****  ****    0 ROOT
