@<TRIPOS>MOLECULE
75V
   47    47     1     0     0
SMALL
bcc


@<TRIPOS>ATOM
      1 C9          -4.6930    -0.7060     0.2170 c          1 75V       0.651100
      2 O2          -5.3940    -0.3020     1.1070 o          1 75V      -0.526000
      3 O3          -4.6430    -1.9480    -0.2170 os         1 75V      -0.413900
      4 C10         -5.4660    -2.9320     0.4390 c3         1 75V       0.145400
      5 C11         -5.1180    -4.2820    -0.1360 c3         1 75V      -0.098100
      6 C3          -2.7610     0.9390     0.2540 cx         1 75V      -0.012900
      7 C2          -3.7220     0.1510    -0.5350 cx         1 75V       0.002100
      8 O1          -3.8740     1.5320    -0.3550 op         1 75V      -0.322600
      9 O4          -1.3440     1.6690    -1.5130 o          1 75V      -0.593100
     10 N1          -0.3920     0.9930     0.4380 ns         1 75V      -0.538900
     11 C5           0.9920     1.0970     0.0500 c3         1 75V       0.018700
     12 C6           1.7140    -0.1970     0.4350 c          1 75V       0.643100
     13 O5           1.2600    -0.9560     1.2850 o          1 75V      -0.666100
     14 C12          1.6870     2.3330     0.6660 c3         1 75V      -0.067700
     15 C14          1.6480     2.3180     2.1960 c3         1 75V      -0.073400
     16 C13          1.0920     3.6110     0.0850 c3         1 75V      -0.086100
     17 C15          2.4650     3.4310     2.8400 c3         1 75V      -0.087100
     18 N2           2.8650    -0.3920    -0.2040 ns         1 75V      -0.519900
     19 C7           3.7950    -1.4660     0.0680 c3         1 75V      -0.046300
     20 C8           5.1770    -1.0950    -0.5250 c          1 75V       0.926600
     21 O6           6.0950    -1.8950    -0.2790 o          1 75V      -0.827300
     22 C16          3.3110    -2.8010    -0.4920 c3         1 75V      -0.079100
     23 O7           5.2460    -0.0480    -1.2000 o          1 75V      -0.827300
     24 H101        -6.5170    -2.6900     0.2710 h1         1 75V       0.047200
     25 H102        -5.2790    -2.9040     1.5140 h1         1 75V       0.047200
     26 H111        -4.0720    -4.5340     0.0410 hc         1 75V       0.048033
     27 H112        -5.7310    -5.0420     0.3470 hc         1 75V       0.048033
     28 H113        -5.3130    -4.3270    -1.2070 hc         1 75V       0.048033
     29 H3          -2.7970     0.8690     1.3400 h1         1 75V       0.105700
     30 H2          -3.4400    -0.1810    -1.5310 h1         1 75V       0.132700
     31 HN1         -0.5800     0.5740     1.3370 hn         1 75V       0.331500
     32 H5           1.0260     1.2040    -1.0370 h1         1 75V       0.089700
     33 H12          2.7360     2.2810     0.3530 hc         1 75V       0.074700
     34 H141         0.6080     2.3950     2.5310 hc         1 75V       0.043200
     35 H142         2.0190     1.3600     2.5680 hc         1 75V       0.043200
     36 H131         1.1020     3.5890    -1.0050 hc         1 75V       0.033033
     37 H132         0.0600     3.7540     0.4090 hc         1 75V       0.033033
     38 H133         1.6590     4.4870     0.3990 hc         1 75V       0.033033
     39 H151         3.5100     3.3850     2.5270 hc         1 75V       0.028367
     40 H152         2.0860     4.4210     2.5860 hc         1 75V       0.028367
     41 H153         2.4420     3.3440     3.9260 hc         1 75V       0.028367
     42 HN2          3.2090     0.2930    -0.8650 hn         1 75V       0.344500
     43 H7           3.9110    -1.5650     1.1520 h1         1 75V       0.050700
     44 H161         4.0300    -3.5860    -0.2640 hc         1 75V       0.027033
     45 H162         2.3530    -3.0830    -0.0580 hc         1 75V       0.027033
     46 H163         3.1930    -2.7490    -1.5760 hc         1 75V       0.027033
     47 C4          -1.4260     1.2490    -0.3730 c          1 75V       0.677100
@<TRIPOS>BOND
     1     1     2 2   
     2     1     3 1   
     3     1     7 1   
     4     3     4 1   
     5     4     5 1   
     6     4    24 1   
     7     4    25 1   
     8     5    26 1   
     9     5    27 1   
    10     5    28 1   
    11     6     7 1   
    12     6     8 1   
    13     6    29 1   
    14     6    47 1   
    15     7     8 1   
    16     7    30 1   
    17     9    47 2   
    18    10    11 1   
    19    10    31 1   
    20    10    47 1   
    21    11    12 1   
    22    11    14 1   
    23    11    32 1   
    24    12    13 2   
    25    12    18 1   
    26    14    15 1   
    27    14    16 1   
    28    14    33 1   
    29    15    17 1   
    30    15    34 1   
    31    15    35 1   
    32    16    36 1   
    33    16    37 1   
    34    16    38 1   
    35    17    39 1   
    36    17    40 1   
    37    17    41 1   
    38    18    19 1   
    39    18    42 1   
    40    19    20 1   
    41    19    22 1   
    42    19    43 1   
    43    20    21 1   
    44    20    23 1   
    45    22    44 1   
    46    22    45 1   
    47    22    46 1   
@<TRIPOS>SUBSTRUCTURE
     1 75V         1 TEMP              0 ****  ****    0 ROOT
