@<TRIPOS>MOLECULE
75V
   47    47     1     0     0
SMALL
No Charge or Current Charge


@<TRIPOS>ATOM
      1 C9          -4.0440    -1.1740     0.6730 c          1 75V       0.602100
      2 O2          -4.0220    -0.8330     1.8500 o          1 75V      -0.477000
      3 O3          -4.8590    -2.1560     0.1700 os         1 75V      -0.437100
      4 C10         -5.7730    -2.8020     1.0710 c3         1 75V       0.168600
      5 C11         -6.5600    -3.8440     0.2610 c3         1 75V      -0.098100
      6 C3          -2.7600     0.8620    -0.3050 cx         1 75V       0.010300
      7 C2          -3.1160    -0.6010    -0.3790 cx         1 75V       0.025300
      8 O1          -3.6790     0.3600    -1.3140 op         1 75V      -0.369000
      9 O4          -1.1770     1.9800    -1.7440 o          1 75V      -0.593100
     10 N1          -0.3520     0.8140     0.0400 ns         1 75V      -0.471900
     11 C5           1.0930     1.0710    -0.1740 c3         1 75V       0.018700
     12 C6           1.9070    -0.2310     0.1000 c          1 75V       0.576100
     13 O5           1.4170    -1.2280     0.6220 o          1 75V      -0.666100
     14 C12          1.6020     2.2850     0.6710 c3         1 75V      -0.067700
     15 C14          1.3980     2.0750     2.2010 c3         1 75V      -0.073400
     16 C13          0.9940     3.6220     0.1740 c3         1 75V      -0.086100
     17 C15          2.0630     3.1460     3.0930 c3         1 75V      -0.087100
     18 N2           3.2310    -0.1880    -0.2890 ns         1 75V      -0.452900
     19 C7           4.2060    -1.2970    -0.1560 c3         1 75V      -0.046300
     20 C8           5.6680    -0.7510    -0.1810 c          1 75V       0.716000
     21 O6           6.4650    -1.2040     0.6290 o          1 75V      -0.722000
     22 C16          3.9870    -2.3750    -1.2420 c3         1 75V      -0.079100
     23 O7           5.9270     0.1850    -0.9260 o          1 75V      -0.722000
     24 H101        -6.4710    -2.0760     1.5100 h1         1 75V       0.047200
     25 H102        -5.2330    -3.3040     1.8860 h1         1 75V       0.047200
     26 H111        -5.8820    -4.5870    -0.1740 hc         1 75V       0.048033
     27 H112        -7.2750    -4.3660     0.9070 hc         1 75V       0.048033
     28 H113        -7.1190    -3.3610    -0.5500 hc         1 75V       0.048033
     29 H3          -3.2150     1.4830     0.4660 h1         1 75V       0.105700
     30 H2          -2.4040    -1.3050    -0.8090 h1         1 75V       0.132700
     31 HN1         -0.6140     0.2160     0.8160 hn         1 75V       0.331500
     32 H5           1.2540     1.2980    -1.2360 h1         1 75V       0.089700
     33 H12          2.6830     2.3650     0.5000 hc         1 75V       0.074700
     34 H141         0.3260     2.0440     2.4320 hc         1 75V       0.043200
     35 H142         1.8080     1.1000     2.4910 hc         1 75V       0.043200
     36 H131         1.0990     3.7150    -0.9130 hc         1 75V       0.033033
     37 H132        -0.0720     3.6880     0.4240 hc         1 75V       0.033033
     38 H133         1.5040     4.4800     0.6260 hc         1 75V       0.033033
     39 H151         3.1320     3.2340     2.8650 hc         1 75V       0.028367
     40 H152         1.5940     4.1270     2.9530 hc         1 75V       0.028367
     41 H153         1.9610     2.8750     4.1500 hc         1 75V       0.028367
     42 HN2          3.5590     0.6750    -0.7110 hn         1 75V       0.344500
     43 H7           4.0540    -1.7630     0.8260 h1         1 75V       0.050700
     44 H161         4.7030    -3.1950    -1.1160 hc         1 75V       0.027033
     45 H162         2.9760    -2.7950    -1.1790 hc         1 75V       0.027033
     46 H163         4.1230    -1.9500    -2.2440 hc         1 75V       0.027033
     47 C4          -1.3750     1.2840    -0.7570 c          1 75V       0.610100
@<TRIPOS>BOND
     1     1     2 2   
     2     1     3 1   
     3     1     7 1   
     4     3     4 1   
     5     4     5 1   
     6     4    24 1   
     7     4    25 1   
     8     5    26 1   
     9     5    27 1   
    10     5    28 1   
    11     6     7 1   
    12     6     8 1   
    13     6    29 1   
    14     6    47 1   
    15     7     8 1   
    16     7    30 1   
    17     9    47 2   
    18    10    11 1   
    19    10    31 1   
    20    10    47 1   
    21    11    12 1   
    22    11    14 1   
    23    11    32 1   
    24    12    13 2   
    25    12    18 1   
    26    14    15 1   
    27    14    16 1   
    28    14    33 1   
    29    15    17 1   
    30    15    34 1   
    31    15    35 1   
    32    16    36 1   
    33    16    37 1   
    34    16    38 1   
    35    17    39 1   
    36    17    40 1   
    37    17    41 1   
    38    18    19 1   
    39    18    42 1   
    40    19    20 1   
    41    19    22 1   
    42    19    43 1   
    43    20    21 1   
    44    20    23 1   
    45    22    44 1   
    46    22    45 1   
    47    22    46 1   
@<TRIPOS>SUBSTRUCTURE
     1 75V         1 TEMP              0 ****  ****    0 ROOT
