@<TRIPOS>MOLECULE
75W
   19    19     1     0     0
SMALL
abcg2


@<TRIPOS>ATOM
      1 C4          -0.3960    -0.1070     0.0420 ca         1 75W      -0.257500
      2 C5           0.3140     1.0860     0.0790 ca         1 75W      -0.008000
      3 C6           1.6950     1.0500     0.1390 ca         1 75W      -0.111500
      4 N12          4.4860     0.5120    -0.3130 n2         1 75W      -0.312400
      5 C1           2.3500    -0.1800     0.1700 ca         1 75W       0.064400
      6 C2           1.6280    -1.3670     0.1660 ca         1 75W      -0.111500
      7 C3           0.2460    -1.3350     0.0850 ca         1 75W      -0.008000
      8 S18         -2.1670    -0.0410    -0.0160 sy         1 75W       1.127600
      9 O9          -2.6660    -1.3740     0.2890 o          1 75W      -0.539000
     10 O10         -2.6320     1.0750     0.7940 o          1 75W      -0.539000
     11 N8          -2.4140     0.4030    -1.5840 n8         1 75W      -1.009100
     12 H1          -0.1970     2.0400     0.0710 ha         1 75W       0.143000
     13 H2           2.2460     1.9800     0.2000 ha         1 75W       0.133000
     14 H3           3.9540     1.2220    -0.8450 hn         1 75W       0.342400
     15 H4           2.1520    -2.3120     0.2220 ha         1 75W       0.133000
     16 H5          -0.3140    -2.2600     0.0680 ha         1 75W       0.143000
     17 H6          -2.2700    -0.3580    -2.2400 hn         1 75W       0.476500
     18 H7          -3.3330     0.8160    -1.7160 hn         1 75W       0.476500
     19 N11          3.7630    -0.3000     0.2550 ne         1 75W      -0.145400
@<TRIPOS>BOND
     1     1     2 ar  
     2     1     7 ar  
     3     1     8 1   
     4     2     3 ar  
     5     2    12 1   
     6     3     5 ar  
     7     3    13 1   
     8     4    14 1   
     9     4    19 2   
    10     5     6 ar  
    11     5    19 1   
    12     6     7 ar  
    13     6    15 1   
    14     7    16 1   
    15     8     9 2   
    16     8    10 2   
    17     8    11 1   
    18    11    17 1   
    19    11    18 1   
@<TRIPOS>SUBSTRUCTURE
     1 75W         1 TEMP              0 ****  ****    0 ROOT
