@<TRIPOS>MOLECULE
75W
   19    19     1     0     0
SMALL
No Charge or Current Charge


@<TRIPOS>ATOM
      1 C4          -0.3760    -0.0390     0.0660 ca         1 75W      -0.257500
      2 C5           0.2880     1.1770     0.3280 ca         1 75W      -0.008000
      3 C6           1.6860     1.1970     0.4780 ca         1 75W      -0.111500
      4 N12          4.4930     0.2190    -0.5460 n2         1 75W      -0.312400
      5 C1           2.4310     0.0090     0.3650 ca         1 75W       0.064400
      6 C2           1.7670    -1.2040     0.1050 ca         1 75W      -0.111500
      7 C3           0.3690    -1.2320    -0.0460 ca         1 75W      -0.008000
      8 S18         -2.1620    -0.0690    -0.1270 sy         1 75W       1.127600
      9 O9          -2.6890    -1.4150     0.0850 o          1 75W      -0.539000
     10 O10         -2.7730     1.1120     0.4770 o          1 75W      -0.539000
     11 N8          -2.3640     0.1730    -1.7270 n8         1 75W      -1.009100
     12 H1          -0.2720     2.1070     0.4150 ha         1 75W       0.143000
     13 H2           2.1920     2.1380     0.6820 ha         1 75W       0.133000
     14 H3           3.8080     0.3140    -1.3080 hn         1 75W       0.342400
     15 H4           2.3350    -2.1270     0.0200 ha         1 75W       0.133000
     16 H5          -0.1280    -2.1790    -0.2500 ha         1 75W       0.143000
     17 H6          -2.9690    -0.6130    -1.9560 hn         1 75W       0.476500
     18 H7          -3.0220     0.9490    -1.7130 hn         1 75W       0.476500
     19 N11          3.8300     0.0320     0.5190 ne         1 75W      -0.145400
@<TRIPOS>BOND
     1     1     2 ar  
     2     1     7 ar  
     3     1     8 1   
     4     2     3 ar  
     5     2    12 1   
     6     3     5 ar  
     7     3    13 1   
     8     4    14 1   
     9     4    19 2   
    10     5     6 ar  
    11     5    19 1   
    12     6     7 ar  
    13     6    15 1   
    14     7    16 1   
    15     8     9 2   
    16     8    10 2   
    17     8    11 1   
    18    11    17 1   
    19    11    18 1   
@<TRIPOS>SUBSTRUCTURE
     1 75W         1 TEMP              0 ****  ****    0 ROOT
