@<TRIPOS>MOLECULE
75Y
   32    33     1     0     0
SMALL
abcg2


@<TRIPOS>ATOM
      1 C4          -3.3340    -0.0830    -0.0700 ca         1 75Y      -0.308500
      2 C5          -2.3960     0.8950     0.2140 ca         1 75Y       0.023000
      3 C6          -1.0420     0.6280     0.0760 ca         1 75Y      -0.176500
      4 C20          4.7560    -0.2970     1.1100 c          1 75Y       0.562200
      5 C16          4.8820     0.6060    -0.9710 c          1 75Y       0.562200
      6 C18          5.9240     1.2430    -0.1150 cc         1 75Y      -0.225700
      7 C19          5.8500     0.7150     1.1010 cd         1 75Y      -0.225700
      8 O21          4.3560    -0.9580     2.0330 o          1 75Y      -0.470500
      9 N15          4.2620    -0.3450    -0.1810 n          1 75Y      -0.385400
     10 C14          3.1020    -1.0840    -0.5660 c3         1 75Y       0.024000
     11 C12          1.8320    -0.3070    -0.2390 c          1 75Y       0.591100
     12 O13          1.8690     0.8150     0.2170 o          1 75Y      -0.554100
     13 C1          -0.6270    -0.6350    -0.3480 ca         1 75Y       0.038000
     14 C2          -1.5880    -1.6140    -0.6310 ca         1 75Y      -0.176500
     15 C3          -2.9310    -1.3450    -0.4930 ca         1 75Y       0.023000
     16 S18         -5.0540     0.2470     0.1320 sy         1 75Y       1.132600
     17 O9          -5.7070    -0.9080     0.7310 o          1 75Y      -0.546000
     18 O10         -5.1900     1.5340     0.8020 o          1 75Y      -0.546000
     19 N8          -5.5590     0.2810    -1.4410 n8         1 75Y      -1.003100
     20 H1          -2.7030     1.8770     0.5460 ha         1 75Y       0.138500
     21 H2          -0.3320     1.4050     0.3000 ha         1 75Y       0.134000
     22 H3           6.5950     2.0040    -0.4820 ha         1 75Y       0.229000
     23 H4           6.4450     0.9400     1.9730 ha         1 75Y       0.229000
     24 H5           3.1420    -1.2920    -1.6360 h1         1 75Y       0.088200
     25 H6           3.0960    -2.0490    -0.0560 h1         1 75Y       0.088200
     26 H7           0.8390    -1.9380    -0.8820 hn         1 75Y       0.155000
     27 H8          -1.2740    -2.5980    -0.9590 ha         1 75Y       0.134000
     28 H9          -3.6530    -2.1190    -0.7150 ha         1 75Y       0.138500
     29 H10         -6.5700     0.1970    -1.5080 hn         1 75Y       0.471500
     30 H11         -5.2460     1.1120    -1.9330 hn         1 75Y       0.471500
     31 N11          0.7030    -1.0060    -0.5170 ns         1 75Y      -0.145000
     32 O17          4.6110     0.8460    -2.1180 o          1 75Y      -0.470500
@<TRIPOS>BOND
     1     1     2 ar  
     2     1    15 ar  
     3     1    16 1   
     4     2     3 ar  
     5     2    20 1   
     6     3    13 ar  
     7     3    21 1   
     8     4     7 1   
     9     4     8 2   
    10     4     9 1   
    11     5     6 1   
    12     5     9 1   
    13     5    32 2   
    14     6     7 2   
    15     6    22 1   
    16     7    23 1   
    17     9    10 1   
    18    10    11 1   
    19    10    24 1   
    20    10    25 1   
    21    11    12 2   
    22    11    31 1   
    23    13    14 ar  
    24    13    31 1   
    25    14    15 ar  
    26    14    27 1   
    27    15    28 1   
    28    16    17 2   
    29    16    18 2   
    30    16    19 1   
    31    19    29 1   
    32    19    30 1   
    33    26    31 1   
@<TRIPOS>SUBSTRUCTURE
     1 75Y         1 TEMP              0 ****  ****    0 ROOT
