@<TRIPOS>MOLECULE
75Y
   32    33     1     0     0
SMALL
No Charge or Current Charge


@<TRIPOS>ATOM
      1 C4          -3.5270    -0.2420    -0.1060 ca         1 75Y      -0.308500
      2 C5          -2.6320     0.7740     0.2810 ca         1 75Y       0.023000
      3 C6          -1.2450     0.5570     0.2030 ca         1 75Y      -0.176500
      4 C20          4.9720    -0.1730     1.1420 c          1 75Y       0.562200
      5 C16          4.9710     0.5850    -1.0710 c          1 75Y       0.562200
      6 C18          6.1160     1.1640    -0.3670 cc         1 75Y      -0.225700
      7 C19          6.1190     0.7180     0.9380 cd         1 75Y      -0.225700
      8 O21          4.6290    -0.7610     2.1560 o          1 75Y      -0.470500
      9 N15          4.3490    -0.1990    -0.1030 n          1 75Y      -0.385400
     10 C14          3.1060    -0.9770    -0.3680 c3         1 75Y       0.024000
     11 C12          1.7920    -0.2130    -0.1080 c          1 75Y       0.591100
     12 O13          1.7760     0.9490     0.2870 o          1 75Y      -0.554100
     13 C1          -0.7340    -0.6750    -0.2610 ca         1 75Y       0.038000
     14 C2          -1.6390    -1.6820    -0.6430 ca         1 75Y      -0.176500
     15 C3          -3.0270    -1.4740    -0.5680 ca         1 75Y       0.023000
     16 S18         -5.2950     0.0250    -0.0110 sy         1 75Y       1.132600
     17 O9          -6.0020    -1.2500     0.1210 o          1 75Y      -0.546000
     18 O10         -5.5830     1.1860     0.8280 o          1 75Y      -0.546000
     19 N8          -5.6290     0.5440    -1.5240 n8         1 75Y      -1.003100
     20 H1          -3.0010     1.7320     0.6450 ha         1 75Y       0.138500
     21 H2          -0.5880     1.3630     0.5130 ha         1 75Y       0.134000
     22 H3           6.8140     1.8340    -0.8580 ha         1 75Y       0.229000
     23 H4           6.8150     0.9450     1.7380 ha         1 75Y       0.229000
     24 H5           3.0970    -1.3060    -1.4140 h1         1 75Y       0.088200
     25 H6           3.0960    -1.8770     0.2590 h1         1 75Y       0.088200
     26 H7           0.8450    -1.9060    -0.6900 hn         1 75Y       0.155000
     27 H8          -1.2680    -2.6390    -1.0020 ha         1 75Y       0.134000
     28 H9          -3.7050    -2.2700    -0.8720 ha         1 75Y       0.138500
     29 H10         -6.1260     1.4090    -1.3240 hn         1 75Y       0.471500
     30 H11         -4.7180     0.8550    -1.8490 hn         1 75Y       0.471500
     31 N11          0.6540    -0.9670    -0.3660 ns         1 75Y      -0.145000
     32 O17          4.6240     0.7390    -2.2310 o          1 75Y      -0.470500
@<TRIPOS>BOND
     1     1     2 ar  
     2     1    15 ar  
     3     1    16 1   
     4     2     3 ar  
     5     2    20 1   
     6     3    13 ar  
     7     3    21 1   
     8     4     7 1   
     9     4     8 2   
    10     4     9 1   
    11     5     6 1   
    12     5     9 1   
    13     5    32 2   
    14     6     7 2   
    15     6    22 1   
    16     7    23 1   
    17     9    10 1   
    18    10    11 1   
    19    10    24 1   
    20    10    25 1   
    21    11    12 2   
    22    11    31 1   
    23    13    14 ar  
    24    13    31 1   
    25    14    15 ar  
    26    14    27 1   
    27    15    28 1   
    28    16    17 2   
    29    16    18 2   
    30    16    19 1   
    31    19    29 1   
    32    19    30 1   
    33    26    31 1   
@<TRIPOS>SUBSTRUCTURE
     1 75Y         1 TEMP              0 ****  ****    0 ROOT
