@<TRIPOS>MOLECULE
75Z
   53    57     1     0     0
SMALL
No Charge or Current Charge


@<TRIPOS>ATOM
      1 C4           5.3170    -0.2490     0.0690 cp         1 75Z      -0.040000
      2 C5           6.1360    -1.5030     0.0410 cp         1 75Z      -0.047000
      3 C6           1.5960     0.6860     0.3260 c          1 75Z       0.620700
      4 C8           3.7560     2.1230     0.1200 ca         1 75Z       0.150100
      5 C13          8.1710    -2.7400     0.6530 ca         1 75Z      -0.151000
      6 C15          6.4400    -3.8440    -0.6480 ca         1 75Z      -0.151000
      7 C20         -1.3070     1.5540    -0.9220 c3         1 75Z      -0.128700
      8 C21         -2.8040     1.5670    -0.8430 cc         1 75Z       0.388800
      9 C26         -6.0520     0.0640    -0.3590 ca         1 75Z      -0.160500
     10 C28         -7.0460    -2.1400     0.1180 ca         1 75Z      -0.114000
     11 C1           5.9310     1.0220    -0.0120 ca         1 75Z      -0.132000
     12 C2           3.1000     0.8650     0.2050 ca         1 75Z      -0.159600
     13 C3           3.9050    -0.3010     0.1770 ca         1 75Z      -0.050000
     14 O7           1.0820    -0.4230     0.3950 o          1 75Z      -0.610100
     15 C9           5.1610     2.1920     0.0120 ca         1 75Z       0.036100
     16 O10          5.7740     3.4170    -0.0720 oh         1 75Z      -0.560100
     17 O11          3.0900     3.3140     0.1350 oh         1 75Z      -0.542100
     18 C12          7.4030    -1.5630     0.6780 ca         1 75Z      -0.074000
     19 C14          7.6880    -3.8760    -0.0090 ca         1 75Z       0.175000
     20 C16          5.6700    -2.6670    -0.6220 ca         1 75Z      -0.074000
     21 F17          8.4270    -5.0070    -0.0340 f          1 75Z      -0.177000
     22 N18          0.8140     1.8160     0.3590 ns         1 75Z      -0.495900
     23 C19         -0.6490     1.8360     0.4410 c3         1 75Z       0.116000
     24 N22         -3.5820     0.4760    -0.5880 na         1 75Z      -0.502000
     25 C23         -4.8770     0.9110    -0.5910 cc         1 75Z       0.451000
     26 N24         -4.8840     2.2120    -0.8340 nd         1 75Z      -0.356000
     27 N25         -3.5810     2.6240    -0.9910 nd         1 75Z      -0.361000
     28 C27         -5.9130    -1.3310    -0.1040 ca         1 75Z      -0.087000
     29 C29         -7.3520     0.6350    -0.3860 ca         1 75Z       0.007000
     30 C30         -8.4630    -0.1920    -0.1610 ca         1 75Z       0.059400
     31 C31         -8.2990    -1.5230     0.0800 ca         1 75Z      -0.074200
     32 N32         -9.5420    -2.0470     0.2550 na         1 75Z      -0.314600
     33 C33        -10.4510    -1.0000     0.1140 cc         1 75Z       0.416700
     34 N34         -9.8100     0.1620    -0.1440 nd         1 75Z      -0.560100
     35 H1           9.1390    -2.7720     1.1490 ha         1 75Z       0.133500
     36 H2           6.0720    -4.7280    -1.1630 ha         1 75Z       0.133500
     37 H3          -0.9700     0.5820    -1.2980 hc         1 75Z       0.060200
     38 H4          -0.9710     2.3050    -1.6470 hc         1 75Z       0.060200
     39 H6          -6.9460    -3.2060     0.3130 ha         1 75Z       0.120000
     40 H7           7.0120     1.0910    -0.1090 ha         1 75Z       0.118000
     41 H8           3.4300    -1.2760     0.2550 ha         1 75Z       0.145000
     42 H9           6.7470     3.2860    -0.1420 ho         1 75Z       0.480000
     43 H10          3.7930     4.0000     0.0610 ho         1 75Z       0.493000
     44 H11          7.7860    -0.6940     1.2080 ha         1 75Z       0.118500
     45 H12          4.7110    -2.6550    -1.1350 ha         1 75Z       0.118500
     46 H13          1.3170     2.6960     0.3000 hn         1 75Z       0.329500
     47 H14         -0.9670     2.8230     0.8040 h1         1 75Z       0.074700
     48 H15         -0.9790     1.0880     1.1750 h1         1 75Z       0.074700
     49 H16         -3.2640    -0.4680    -0.4310 hn         1 75Z       0.358000
     50 H21         -4.9300    -1.7940    -0.0780 ha         1 75Z       0.103000
     51 H22         -7.5020     1.6950    -0.5760 ha         1 75Z       0.157000
     52 H23         -9.7800    -3.0110     0.4520 hn         1 75Z       0.359000
     53 H24        -11.5220    -1.1400     0.2070 h5         1 75Z       0.064800
@<TRIPOS>BOND
     1     1     2 1   
     2     1    11 ar  
     3     1    13 ar  
     4     2    18 ar  
     5     2    20 ar  
     6     3    12 1   
     7     3    14 2   
     8     3    22 1   
     9     4    12 ar  
    10     4    15 ar  
    11     4    17 1   
    12     5    18 ar  
    13     5    19 ar  
    14     5    35 1   
    15     6    19 ar  
    16     6    20 ar  
    17     6    36 1   
    18     7     8 1   
    19     7    23 1   
    20     7    37 1   
    21     7    38 1   
    22     8    24 1   
    23     8    27 2   
    24     9    25 1   
    25     9    28 ar  
    26     9    29 ar  
    27    10    28 ar  
    28    10    31 ar  
    29    10    39 1   
    30    11    15 ar  
    31    11    40 1   
    32    12    13 ar  
    33    13    41 1   
    34    15    16 1   
    35    16    42 1   
    36    17    43 1   
    37    18    44 1   
    38    19    21 1   
    39    20    45 1   
    40    22    23 1   
    41    22    46 1   
    42    23    47 1   
    43    23    48 1   
    44    24    25 1   
    45    24    49 1   
    46    25    26 2   
    47    26    27 1   
    48    28    50 1   
    49    29    30 ar  
    50    29    51 1   
    51    30    31 ar  
    52    30    34 1   
    53    31    32 1   
    54    32    33 1   
    55    32    52 1   
    56    33    34 2   
    57    33    53 1   
@<TRIPOS>SUBSTRUCTURE
     1 75Z         1 TEMP              0 ****  ****    0 ROOT
