@<TRIPOS>MOLECULE
75Z
   53    57     1     0     0
SMALL
abcg2


@<TRIPOS>ATOM
      1 C4           5.3290    -0.1300    -0.0020 cp         1 75Z      -0.040000
      2 C5           6.0920    -1.3830     0.1620 cp         1 75Z      -0.047000
      3 C6           1.8680     1.1180     0.7900 c          1 75Z       0.620700
      4 C8           3.8720     2.2440    -0.3450 ca         1 75Z       0.150100
      5 C13          8.1840    -2.5340     0.5900 ca         1 75Z      -0.151000
      6 C15          6.1740    -3.8080     0.1820 ca         1 75Z      -0.151000
      7 C20         -1.2100     0.8520    -0.1150 c3         1 75Z      -0.128700
      8 C21         -2.6660     0.9380     0.1710 cc         1 75Z       0.388800
      9 C26         -6.0730    -0.1150    -0.1630 ca         1 75Z      -0.160500
     10 C28         -7.3970    -1.6250    -1.5470 ca         1 75Z      -0.114000
     11 C1           5.9140     0.9800    -0.6180 ca         1 75Z      -0.132000
     12 C2           3.2750     1.1450     0.2690 ca         1 75Z      -0.159600
     13 C3           4.0220    -0.0230     0.4450 ca         1 75Z      -0.050000
     14 O7           1.5580     0.3460     1.6900 o          1 75Z      -0.610100
     15 C9           5.2030     2.1500    -0.7810 ca         1 75Z       0.036100
     16 O10          5.7000     3.2620    -1.3640 oh         1 75Z      -0.560100
     17 O11          3.1910     3.3930    -0.5140 oh         1 75Z      -0.542100
     18 C12          7.4590    -1.3620     0.4430 ca         1 75Z      -0.074000
     19 C14          7.5260    -3.7410     0.4580 ca         1 75Z       0.175000
     20 C16          5.4670    -2.6240     0.0340 ca         1 75Z      -0.074000
     21 F17          8.2200    -4.8810     0.6010 f          1 75Z      -0.177000
     22 N18          0.9770     1.9330     0.2070 ns         1 75Z      -0.495900
     23 C19         -0.4190     1.9600     0.5760 c3         1 75Z       0.116000
     24 N22         -3.5890     0.0930    -0.3470 na         1 75Z      -0.502000
     25 C23         -4.7860     0.5060     0.1380 cc         1 75Z       0.451000
     26 N24         -4.5950     1.5440     0.9070 nd         1 75Z      -0.356000
     27 N25         -3.2660     1.8120     0.9280 nd         1 75Z      -0.361000
     28 C27         -6.1940    -1.0290    -1.2290 ca         1 75Z      -0.087000
     29 C29         -7.1790     0.2220     0.6070 ca         1 75Z       0.007000
     30 C30         -8.4000    -0.3680     0.2990 ca         1 75Z       0.059400
     31 C31         -8.4950    -1.2810    -0.7670 ca         1 75Z      -0.074200
     32 N32         -9.8070    -1.6560    -0.7840 na         1 75Z      -0.314600
     33 C33        -10.4250    -0.9910     0.2220 cc         1 75Z       0.416700
     34 N34         -9.6290    -0.2110     0.8960 nd         1 75Z      -0.560100
     35 H1           9.2430    -2.5050     0.8130 ha         1 75Z       0.133500
     36 H2           5.6810    -4.7640     0.0720 ha         1 75Z       0.133500
     37 H3          -0.8350    -0.1250     0.2010 hc         1 75Z       0.060200
     38 H4          -1.0540     0.9110    -1.1960 hc         1 75Z       0.060200
     39 H6          -7.4730    -2.3230    -2.3690 ha         1 75Z       0.120000
     40 H7           6.9290     0.9250    -0.9950 ha         1 75Z       0.118000
     41 H8           3.5550    -0.8570     0.9510 ha         1 75Z       0.145000
     42 H9           6.5920     3.1110    -1.6970 ho         1 75Z       0.480000
     43 H10          3.7160     4.0300    -1.0140 ho         1 75Z       0.493000
     44 H11          7.9730    -0.4170     0.5690 ha         1 75Z       0.118500
     45 H12          4.4120    -2.6770    -0.2040 ha         1 75Z       0.118500
     46 H13          1.2660     2.5130    -0.5610 hn         1 75Z       0.329500
     47 H14         -0.8120     2.9340     0.2920 h1         1 75Z       0.074700
     48 H15         -0.5150     1.8780     1.6580 h1         1 75Z       0.074700
     49 H16         -3.4050    -0.7000    -0.9420 hn         1 75Z       0.358000
     50 H21         -5.3330    -1.2720    -1.8390 ha         1 75Z       0.103000
     51 H22         -7.0940     0.9210     1.4270 ha         1 75Z       0.157000
     52 H23        -10.2460    -2.3050    -1.4170 hn         1 75Z       0.359000
     53 H24        -11.4790    -1.1210     0.4140 h5         1 75Z       0.064800
@<TRIPOS>BOND
     1     1     2 1   
     2     1    11 ar  
     3     1    13 ar  
     4     2    18 ar  
     5     2    20 ar  
     6     3    12 1   
     7     3    14 2   
     8     3    22 1   
     9     4    12 ar  
    10     4    15 ar  
    11     4    17 1   
    12     5    18 ar  
    13     5    19 ar  
    14     5    35 1   
    15     6    19 ar  
    16     6    20 ar  
    17     6    36 1   
    18     7     8 1   
    19     7    23 1   
    20     7    37 1   
    21     7    38 1   
    22     8    24 1   
    23     8    27 2   
    24     9    25 1   
    25     9    28 ar  
    26     9    29 ar  
    27    10    28 ar  
    28    10    31 ar  
    29    10    39 1   
    30    11    15 ar  
    31    11    40 1   
    32    12    13 ar  
    33    13    41 1   
    34    15    16 1   
    35    16    42 1   
    36    17    43 1   
    37    18    44 1   
    38    19    21 1   
    39    20    45 1   
    40    22    23 1   
    41    22    46 1   
    42    23    47 1   
    43    23    48 1   
    44    24    25 1   
    45    24    49 1   
    46    25    26 2   
    47    26    27 1   
    48    28    50 1   
    49    29    30 ar  
    50    29    51 1   
    51    30    31 ar  
    52    30    34 1   
    53    31    32 1   
    54    32    33 1   
    55    32    52 1   
    56    33    34 2   
    57    33    53 1   
@<TRIPOS>SUBSTRUCTURE
     1 75Z         1 TEMP              0 ****  ****    0 ROOT
