@<TRIPOS>MOLECULE
760
   42    45     1     0     0
SMALL
bcc


@<TRIPOS>ATOM
      1 C1           2.3260    -0.3520     3.3660 c6         1 760      -0.132700
      2 C2           3.5180    -0.6420     2.4660 c6         1 760      -0.074400
      3 C3           3.4970     0.2950     1.2700 c6         1 760      -0.075400
      4 C4           2.2670     0.0070     0.4230 c6         1 760      -0.020100
      5 C5          -0.2380     0.1900     0.6120 ca         1 760       0.161600
      6 C6          -2.7150     0.4340     0.9050 ca         1 760      -0.115000
      7 C7          -3.7980     0.5010     1.7400 ca         1 760      -0.129000
      8 C8          -3.6290     0.3900     3.1340 ca         1 760      -0.120000
      9 C9          -2.3820     0.1980     3.6620 ca         1 760      -0.168300
     10 N10         -0.0440    -0.0960     3.3940 nb         1 760      -0.691000
     11 C11          1.0220    -0.1610     2.6320 ca         1 760       0.458600
     12 C12          0.9910    -0.0090     1.2220 ca         1 760      -0.206600
     13 C13         -1.4090     0.2570     1.4230 ca         1 760      -0.182300
     14 C14         -1.2450     0.1200     2.8220 ca         1 760       0.420600
     15 N15         -0.3170     0.3590    -0.7680 nu         1 760      -0.732600
     16 C17         -0.0840    -0.8050    -1.6190 c3         1 760       0.234100
     17 C18          0.0500    -0.3910    -3.0590 ca         1 760      -0.100300
     18 C19          1.0470     0.5030    -3.4490 ca         1 760      -0.112000
     19 C20          1.1770     0.8800    -4.7770 ca         1 760      -0.132000
     20 C21          0.3070     0.3720    -5.7360 ca         1 760      -0.121000
     21 C22         -0.6910    -0.5130    -5.3560 ca         1 760      -0.132000
     22 C23         -0.8180    -0.8890    -4.0240 ca         1 760      -0.112000
     23 H12          2.1920    -1.1400     4.1100 hc         1 760       0.062700
     24 H11          2.5180     0.5640     3.9360 hc         1 760       0.062700
     25 H22A         3.4820    -1.6780     2.1130 hc         1 760       0.043700
     26 H21A         4.4420    -0.5390     3.0380 hc         1 760       0.043700
     27 H32          3.4840     1.3340     1.6160 hc         1 760       0.044200
     28 H31          4.3930     0.1770     0.6590 hc         1 760       0.044200
     29 H42          2.1680     0.7380    -0.3840 hc         1 760       0.051700
     30 H41          2.4150    -0.9610    -0.0700 hc         1 760       0.051700
     31 H6          -2.8790     0.5070    -0.1620 ha         1 760       0.124000
     32 H7          -4.7890     0.6340     1.3270 ha         1 760       0.131000
     33 H8          -4.4900     0.4480     3.7860 ha         1 760       0.134000
     34 H9          -2.2350     0.1030     4.7300 ha         1 760       0.148000
     35 H15         -1.1620     0.8310    -1.0540 hn         1 760       0.390800
     36 H171         0.8280    -1.3040    -1.2940 h1         1 760       0.045700
     37 H172        -0.8910    -1.5420    -1.5210 h1         1 760       0.045700
     38 H19          1.7270     0.9060    -2.7080 ha         1 760       0.133500
     39 H20          1.9600     1.5700    -5.0660 ha         1 760       0.131500
     40 H21          0.4080     0.6680    -6.7720 ha         1 760       0.131000
     41 H22         -1.3770    -0.9090    -6.0940 ha         1 760       0.131500
     42 H23         -1.6040    -1.5760    -3.7320 ha         1 760       0.133500
@<TRIPOS>BOND
     1     1     2 1   
     2     1    11 1   
     3     1    23 1   
     4     1    24 1   
     5     2     3 1   
     6     2    25 1   
     7     2    26 1   
     8     3     4 1   
     9     3    27 1   
    10     3    28 1   
    11     4    12 1   
    12     4    29 1   
    13     4    30 1   
    14     5    12 ar  
    15     5    13 ar  
    16     5    15 1   
    17     6     7 ar  
    18     6    13 ar  
    19     6    31 1   
    20     7     8 ar  
    21     7    32 1   
    22     8     9 ar  
    23     8    33 1   
    24     9    14 ar  
    25     9    34 1   
    26    10    11 ar  
    27    10    14 ar  
    28    11    12 ar  
    29    13    14 ar  
    30    15    16 1   
    31    15    35 1   
    32    16    17 1   
    33    16    36 1   
    34    16    37 1   
    35    17    18 ar  
    36    17    22 ar  
    37    18    19 ar  
    38    18    38 1   
    39    19    20 ar  
    40    19    39 1   
    41    20    21 ar  
    42    20    40 1   
    43    21    22 ar  
    44    21    41 1   
    45    22    42 1   
@<TRIPOS>SUBSTRUCTURE
     1 760         1 TEMP              0 ****  ****    0 ROOT
