@<TRIPOS>MOLECULE
760
   42    45     1     0     0
SMALL
No Charge or Current Charge


@<TRIPOS>ATOM
      1 C1           2.2310    -0.2960     3.7050 c6         1 760      -0.132700
      2 C2           3.5430    -0.6700     2.9800 c6         1 760      -0.074400
      3 C3           3.7300     0.2110     1.7300 c6         1 760      -0.075400
      4 C4           2.5810    -0.0270     0.7250 c6         1 760      -0.020100
      5 C5           0.0070     0.1730     0.5970 ca         1 760       0.300000
      6 C6          -2.4610     0.3850     0.5410 ca         1 760      -0.097000
      7 C7          -3.6880     0.4210     1.2220 ca         1 760      -0.111000
      8 C8          -3.7200     0.2890     2.6160 ca         1 760      -0.102000
      9 C9          -2.5210     0.1170     3.3270 ca         1 760      -0.085000
     10 N10         -0.1590    -0.0940     3.3930 nb         1 760      -0.691000
     11 C11          1.0330    -0.1320     2.7640 ca         1 760       0.393300
     12 C12          1.1790     0.0050     1.3680 ca         1 760      -0.141300
     13 C13         -1.2460     0.2170     1.2540 ca         1 760      -0.117000
     14 C14         -1.2800     0.0770     2.6640 ca         1 760       0.290000
     15 N15          0.0730     0.3190    -0.7970 nu         1 760      -0.926200
     16 C17          0.4480    -0.7520    -1.7270 c3         1 760       0.234100
     17 C18          0.1060    -0.3350    -3.1490 ca         1 760      -0.100300
     18 C19          1.0510     0.3530    -3.9360 ca         1 760      -0.094000
     19 C20          0.7340     0.7400    -5.2500 ca         1 760      -0.114000
     20 C21         -0.5310     0.4430    -5.7850 ca         1 760      -0.103000
     21 C22         -1.4790    -0.2410    -5.0050 ca         1 760      -0.114000
     22 C23         -1.1620    -0.6280    -3.6910 ca         1 760      -0.094000
     23 H12          2.0100    -1.0550     4.4670 hc         1 760       0.062700
     24 H11          2.3770     0.6480     4.2470 hc         1 760       0.062700
     25 H22A         3.5200    -1.7290     2.6860 hc         1 760       0.043700
     26 H21A         4.3970    -0.5510     3.6610 hc         1 760       0.043700
     27 H32          3.7570     1.2700     2.0220 hc         1 760       0.044200
     28 H31          4.6950    -0.0090     1.2530 hc         1 760       0.044200
     29 H42          2.6540     0.7200    -0.0770 hc         1 760       0.051700
     30 H41          2.7300    -1.0070     0.2520 hc         1 760       0.051700
     31 H6          -2.4730     0.4820    -0.5410 ha         1 760       0.106000
     32 H7          -4.6150     0.5500     0.6660 ha         1 760       0.113000
     33 H8          -4.6700     0.3160     3.1460 ha         1 760       0.116000
     34 H9          -2.5520     0.0120     4.4080 ha         1 760       0.130000
     35 H15         -0.6580     0.9240    -1.1660 hn         1 760       0.446000
     36 H171         1.5200    -0.9760    -1.6590 h1         1 760       0.045700
     37 H172        -0.1010    -1.6710    -1.4800 h1         1 760       0.045700
     38 H19          2.0310     0.5900    -3.5260 ha         1 760       0.115500
     39 H20          1.4680     1.2710    -5.8520 ha         1 760       0.113500
     40 H21         -0.7760     0.7430    -6.8020 ha         1 760       0.113000
     41 H22         -2.4590    -0.4700    -5.4180 ha         1 760       0.113500
     42 H23         -1.9020    -1.1550    -3.0920 ha         1 760       0.115500
@<TRIPOS>BOND
     1     1     2 1   
     2     1    11 1   
     3     1    23 1   
     4     1    24 1   
     5     2     3 1   
     6     2    25 1   
     7     2    26 1   
     8     3     4 1   
     9     3    27 1   
    10     3    28 1   
    11     4    12 1   
    12     4    29 1   
    13     4    30 1   
    14     5    12 ar  
    15     5    13 ar  
    16     5    15 1   
    17     6     7 ar  
    18     6    13 ar  
    19     6    31 1   
    20     7     8 ar  
    21     7    32 1   
    22     8     9 ar  
    23     8    33 1   
    24     9    14 ar  
    25     9    34 1   
    26    10    11 ar  
    27    10    14 ar  
    28    11    12 ar  
    29    13    14 ar  
    30    15    16 1   
    31    15    35 1   
    32    16    17 1   
    33    16    36 1   
    34    16    37 1   
    35    17    18 ar  
    36    17    22 ar  
    37    18    19 ar  
    38    18    38 1   
    39    19    20 ar  
    40    19    39 1   
    41    20    21 ar  
    42    20    40 1   
    43    21    22 ar  
    44    21    41 1   
    45    22    42 1   
@<TRIPOS>SUBSTRUCTURE
     1 760         1 TEMP              0 ****  ****    0 ROOT
