@<TRIPOS>MOLECULE
761
   26    27     1     0     0
SMALL
abcg2


@<TRIPOS>ATOM
      1 C1           2.2140     0.0320    -4.1180 ca         1 761      -0.142000
      2 C2           2.2870     0.0460    -2.7520 ca         1 761      -0.111000
      3 C3           1.1080     0.0270    -1.9660 ca         1 761       0.003000
      4 C4          -0.1450    -0.0050    -2.6230 ca         1 761      -0.094000
      5 C5          -0.1920    -0.0170    -4.0360 ca         1 761      -0.077000
      6 C6           0.9620     0.0000    -4.7700 ca         1 761      -0.181000
      7 C11          1.1540     0.0400    -0.5570 ca         1 761      -0.238000
      8 C12          0.0010     0.0200     0.2020 ca         1 761       0.050000
      9 C13         -1.2770    -0.0130    -0.4570 ca         1 761      -0.174600
     10 C14         -1.3090    -0.0250    -1.8280 ca         1 761      -0.089000
     11 C17         -2.6180    -0.0390     0.2770 c          1 761       0.710600
     12 O18         -2.5930    -0.0150     1.5310 o          1 761      -0.708000
     13 O19         -3.6420    -0.0820    -0.4220 o          1 761      -0.708000
     14 N20          0.0100     0.0280     1.5920 ns         1 761      -0.137000
     15 C21          1.0620     0.0400     2.4390 c          1 761       0.446100
     16 O22          2.2370     0.0570     2.1080 o          1 761      -0.655100
     17 C23          0.6490     0.0310     3.9440 c          1 761       0.660000
     18 O24         -0.5710     0.0400     4.1820 o          1 761      -0.697000
     19 O25          1.5940     0.0150     4.7430 o          1 761      -0.697000
     20 H11          3.1210     0.0450    -4.7090 ha         1 761       0.074000
     21 H21          3.2500     0.0710    -2.2550 ha         1 761       0.097000
     22 H51         -1.1560    -0.0420    -4.5300 ha         1 761       0.089000
     23 H61          0.9210    -0.0100    -5.8520 ha         1 761       0.074000
     24 H111         2.1180     0.0650    -0.0770 ha         1 761       0.139000
     25 H141        -2.2720    -0.0510    -2.3210 ha         1 761       0.121000
     26 H20         -0.9380     0.0170     1.9970 hn         1 761       0.246000
@<TRIPOS>BOND
     1     1     2 ar  
     2     1     6 ar  
     3     1    20 1   
     4     2     3 ar  
     5     2    21 1   
     6     3     4 ar  
     7     3     7 ar  
     8     4     5 ar  
     9     4    10 ar  
    10     5     6 ar  
    11     5    22 1   
    12     6    23 1   
    13     7     8 ar  
    14     7    24 1   
    15     8     9 ar  
    16     8    14 1   
    17     9    10 ar  
    18     9    11 1   
    19    10    25 1   
    20    11    12 1   
    21    11    13 1   
    22    14    15 1   
    23    14    26 1   
    24    15    16 2   
    25    15    17 1   
    26    17    18 1   
    27    17    19 1   
@<TRIPOS>SUBSTRUCTURE
     1 761         1 TEMP              0 ****  ****    0 ROOT
