@<TRIPOS>MOLECULE
761
   26    27     1     0     0
SMALL
No Charge or Current Charge


@<TRIPOS>ATOM
      1 C1           2.2140     0.0980    -4.1790 ca         1 761      -0.142000
      2 C2           2.2820     0.1180    -2.7750 ca         1 761      -0.111000
      3 C3           1.1020     0.0680    -2.0090 ca         1 761       0.003000
      4 C4          -0.1490     0.0010    -2.6530 ca         1 761      -0.094000
      5 C5          -0.2150    -0.0180    -4.0590 ca         1 761      -0.077000
      6 C6           0.9670     0.0300    -4.8200 ca         1 761      -0.181000
      7 C11          1.1650     0.0860    -0.6050 ca         1 761      -0.238000
      8 C12         -0.0100     0.0340     0.1770 ca         1 761       0.050000
      9 C13         -1.2730    -0.0150    -0.4730 ca         1 761      -0.174600
     10 C14         -1.3250    -0.0390    -1.8860 ca         1 761      -0.089000
     11 C17         -2.5730    -0.0560     0.3040 c          1 761       0.710600
     12 O18         -2.6680     0.6120     1.3230 o          1 761      -0.708000
     13 O19         -3.4880    -0.7350    -0.1390 o          1 761      -0.708000
     14 N20          0.0440     0.0470     1.6000 ns         1 761      -0.137000
     15 C21          1.0670    -0.2200     2.5050 c          1 761       0.446100
     16 O22          2.1940    -0.6160     2.1780 o          1 761      -0.655100
     17 C23          0.6130     0.0200     4.0480 c          1 761       0.660000
     18 O24         -0.5280     0.4230     4.2650 o          1 761      -0.697000
     19 O25          1.4210    -0.2060     4.9470 o          1 761      -0.697000
     20 H11          3.1280     0.1360    -4.7670 ha         1 761       0.074000
     21 H21          3.2510     0.1700    -2.2850 ha         1 761       0.097000
     22 H51         -1.1770    -0.0690    -4.5640 ha         1 761       0.089000
     23 H61          0.9130     0.0150    -5.9060 ha         1 761       0.074000
     24 H111         2.1400     0.1540    -0.1340 ha         1 761       0.139000
     25 H141        -2.2890    -0.0820    -2.3890 ha         1 761       0.121000
     26 H20         -0.8320     0.3180     2.0370 hn         1 761       0.246000
@<TRIPOS>BOND
     1     1     2 ar  
     2     1     6 ar  
     3     1    20 1   
     4     2     3 ar  
     5     2    21 1   
     6     3     4 ar  
     7     3     7 ar  
     8     4     5 ar  
     9     4    10 ar  
    10     5     6 ar  
    11     5    22 1   
    12     6    23 1   
    13     7     8 ar  
    14     7    24 1   
    15     8     9 ar  
    16     8    14 1   
    17     9    10 ar  
    18     9    11 1   
    19    10    25 1   
    20    11    12 1   
    21    11    13 1   
    22    14    15 1   
    23    14    26 1   
    24    15    16 2   
    25    15    17 1   
    26    17    18 1   
    27    17    19 1   
@<TRIPOS>SUBSTRUCTURE
     1 761         1 TEMP              0 ****  ****    0 ROOT
