@<TRIPOS>MOLECULE
762
   41    44     1     0     0
SMALL
No Charge or Current Charge


@<TRIPOS>ATOM
      1 C1          -4.2660     0.6870     0.2260 ca         1 762      -0.300900
      2 C2          -4.4980    -0.7170     0.2250 ca         1 762       0.116000
      3 Cl2         -6.1370    -1.3640     0.2350 cl         1 762      -0.218000
      4 C3          -3.4220    -1.6280     0.1900 ca         1 762      -0.093000
      5 C4          -2.1240    -1.1100     0.1570 ca         1 762      -0.011000
      6 C5          -1.8800     0.2520     0.1550 ca         1 762      -0.030000
      7 C6          -2.9330     1.1750     0.1880 ca         1 762      -0.039000
      8 C7          -5.3940     1.6460     0.2660 ce         1 762       0.540400
      9 N1          -6.1750     1.6770     1.3870 nv         1 762      -0.573200
     10 N2          -5.3790     2.7050    -0.5960 nv         1 762      -0.557300
     11 N3          -0.9170    -1.7800     0.1190 na         1 762      -0.302900
     12 N4          -0.5160     0.4810     0.1180 nc         1 762      -0.290600
     13 C8           0.0400    -0.7750     0.0980 cc         1 762       0.313500
     14 C9           1.3960    -1.1320     0.0520 cd         1 762      -0.334200
     15 C10          1.7270    -2.5420     0.0280 cd         1 762      -0.085000
     16 C11          3.0540    -2.8940    -0.0020 cc         1 762      -0.322000
     17 C12          4.1150    -1.9360    -0.0380 cc         1 762      -0.089000
     18 C13          3.8790    -0.5720    -0.0670 cd         1 762      -0.205400
     19 C14          2.4620    -0.0810     0.0400 c          1 762       0.600500
     20 O6           2.2040     1.1140     0.1410 o          1 762      -0.648100
     21 C1B          5.0330     0.3740    -0.0530 ca         1 762       0.008200
     22 C2B          6.2600     0.0060     0.5530 ca         1 762      -0.102000
     23 C3B          7.3590     0.8830     0.5610 ca         1 762      -0.121500
     24 C4B          7.2590     2.1430    -0.0440 ca         1 762      -0.131000
     25 C5B          6.0590     2.5230    -0.6610 ca         1 762      -0.121500
     26 C6B          4.9590     1.6480    -0.6660 ca         1 762      -0.102000
     27 HC3         -3.6000    -2.7000     0.1840 ha         1 762       0.142000
     28 HC6         -2.7190     2.2420     0.1950 ha         1 762       0.133000
     29 HH11        -6.9850     2.2810     1.4000 hn         1 762       0.370500
     30 HH12        -6.1780     0.8590     1.9810 hn         1 762       0.370500
     31 HH21        -4.8220     2.6180    -1.4350 hn         1 762       0.370500
     32 HH22        -6.1690     3.3340    -0.6130 hn         1 762       0.370500
     33 HN3         -0.7620    -2.7780     0.1090 hn         1 762       0.366000
     34 HC2          0.9910    -3.3410     0.0410 ha         1 762       0.131000
     35 H1           3.3260    -3.9480    -0.0080 ha         1 762       0.164000
     36 HC4          5.1260    -2.3310    -0.0880 ha         1 762       0.159000
     37 H2B          6.3660    -0.9510     1.0550 ha         1 762       0.114500
     38 H3B          8.2870     0.5840     1.0420 ha         1 762       0.097500
     39 H4B          8.1110     2.8210    -0.0400 ha         1 762       0.097000
     40 H5B          5.9810     3.4950    -1.1430 ha         1 762       0.097500
     41 H6B          4.0600     1.9610    -1.1890 ha         1 762       0.114500
@<TRIPOS>BOND
     1     1     2 ar  
     2     1     7 ar  
     3     1     8 1   
     4     2     3 1   
     5     2     4 ar  
     6     4     5 ar  
     7     4    27 1   
     8     5     6 ar  
     9     5    11 2   
    10     6     7 ar  
    11     6    12 2   
    12     7    28 1   
    13     8     9 2   
    14     8    10 1   
    15     9    29 1   
    16     9    30 1   
    17    10    31 1   
    18    10    32 1   
    19    11    13 1   
    20    11    33 1   
    21    12    13 1   
    22    13    14 2   
    23    14    15 1   
    24    14    19 1   
    25    15    16 2   
    26    15    34 1   
    27    16    17 1   
    28    16    35 1   
    29    17    18 2   
    30    17    36 1   
    31    18    19 1   
    32    18    21 1   
    33    19    20 2   
    34    21    22 ar  
    35    21    26 ar  
    36    22    23 ar  
    37    22    37 1   
    38    23    24 ar  
    39    23    38 1   
    40    24    25 ar  
    41    24    39 1   
    42    25    26 ar  
    43    25    40 1   
    44    26    41 1   
@<TRIPOS>SUBSTRUCTURE
     1 762         1 TEMP              0 ****  ****    0 ROOT
