@<TRIPOS>MOLECULE
762
   41    44     1     0     0
SMALL
bcc


@<TRIPOS>ATOM
      1 H1          -4.1940     0.6770     0.2570 ca         1 762      -0.217000
      2 H2          -4.4390    -0.6290    -0.2030 ca         1 762      -0.054000
      3 HL2         -6.0510    -1.1340    -0.5920 cl         1 762      -0.048000
      4 H3          -3.4130    -1.5320    -0.4160 ca         1 762      -0.111000
      5 H4          -2.1280    -1.0900    -0.1430 ca         1 762      -0.011000
      6 H5          -1.8480     0.2150     0.3080 ca         1 762      -0.030000
      7 H6          -2.8920     1.1060     0.5010 ca         1 762      -0.057000
      8 H7          -5.2780     1.6470     0.4960 c2         1 762       0.363000
      9 H1          -6.2540     1.3520     1.3160 n8         1 762      -0.318500
     10 H2          -5.2050     2.8130    -0.0960 n8         1 762      -0.318500
     11 H3          -0.9130    -1.6860    -0.2240 na         1 762      -0.230000
     12 H4          -0.5050     0.3800     0.4870 n2         1 762      -0.150000
     13 H8           0.0430    -0.7710     0.1620 cc         1 762       0.200000
     14 H9           1.4460    -1.1330     0.2000 cd         1 762      -0.315000
     15 H10          1.7890    -2.4800     0.3690 cd         1 762      -0.035000
     16 H11          3.1020    -2.8980     0.4060 cc         1 762      -0.272000
     17 H12          4.1080    -1.9400     0.2590 cc         1 762      -0.039000
     18 H13          3.8310    -0.5990     0.0800 cd         1 762      -0.198000
     19 H14          2.4620    -0.1120     0.0530 c          1 762       0.323000
     20 H6           2.1990     1.1010    -0.0940 o          1 762      -0.409000
     21 H1B          4.9480     0.3570    -0.0560 ca         1 762       0.020000
     22 H2B          6.0540     0.2750     0.7940 ca         1 762      -0.120000
     23 H3B          7.1410     1.1270     0.6530 ca         1 762      -0.139500
     24 H4B          7.1450     2.0920    -0.3440 ca         1 762      -0.149000
     25 H5B          6.0510     2.1910    -1.1950 ca         1 762      -0.139500
     26 H6B          4.9650     1.3410    -1.0510 ca         1 762      -0.120000
     27 HC3         -3.6150    -2.5290    -0.7830 ha         1 762       0.160000
     28 HC6         -2.6990     2.1100     0.8590 ha         1 762       0.151000
     29 HH11        -7.0280     1.9790     1.4800 ha         1 762       0.270500
     30 HH12        -6.2490     0.4900     1.8370 ha         1 762       0.270500
     31 HH21        -4.5010     2.9880    -0.7950 ha         1 762       0.270500
     32 HH22        -5.8640     3.5540     0.0910 ha         1 762       0.270500
     33 HN3         -0.7350    -2.6100    -0.5860 ha         1 762       0.266000
     34 HC2          1.0100    -3.2230     0.5050 ha         1 762       0.081000
     35 H1           3.3480    -3.9420     0.5470 ha         1 762       0.114000
     36 HC4          5.1440    -2.2630     0.2720 ha         1 762       0.109000
     37 H2B          6.0590    -0.4620     1.5890 ha         1 762       0.132500
     38 H3B          7.9820     1.0390     1.3300 ha         1 762       0.115500
     39 H4B          7.9900     2.7600    -0.4580 ha         1 762       0.115000
     40 H5B          6.0440     2.9370    -1.9810 ha         1 762       0.115500
     41 H6B          4.1300     1.4300    -1.7300 ha         1 762       0.132500
@<TRIPOS>BOND
     1     1     2 ar  
     2     1     7 ar  
     3     1     8 1   
     4     2     3 1   
     5     2     4 ar  
     6     4     5 ar  
     7     4    27 1   
     8     5     6 ar  
     9     5    11 2   
    10     6     7 ar  
    11     6    12 2   
    12     7    28 1   
    13     8     9 2   
    14     8    10 1   
    15     9    29 1   
    16     9    30 1   
    17    10    31 1   
    18    10    32 1   
    19    11    13 1   
    20    11    33 1   
    21    12    13 1   
    22    13    14 2   
    23    14    15 1   
    24    14    19 1   
    25    15    16 2   
    26    15    34 1   
    27    16    17 1   
    28    16    35 1   
    29    17    18 2   
    30    17    36 1   
    31    18    19 1   
    32    18    21 1   
    33    19    20 2   
    34    21    22 ar  
    35    21    26 ar  
    36    22    23 ar  
    37    22    37 1   
    38    23    24 ar  
    39    23    38 1   
    40    24    25 ar  
    41    24    39 1   
    42    25    26 ar  
    43    25    40 1   
    44    26    41 1   
@<TRIPOS>SUBSTRUCTURE
     1 762         1 TEMP              0 ****  ****    0 ROOT
