@<TRIPOS>MOLECULE
763
   54    57     1     0     0
SMALL
bcc


@<TRIPOS>ATOM
      1 C4          -3.3010    -0.3980     0.1300 ca         1 763      -0.090000
      2 C5          -3.1280    -1.7830     0.2280 ca         1 763      -0.232600
      3 C6          -4.2000    -2.5780     0.6480 ca         1 763       0.139100
      4 C7          -4.6840     1.6620     0.3160 cp         1 763      -0.045000
      5 C8          -5.4540     2.3730     1.2390 ca         1 763      -0.094500
      6 C10         -4.0860     2.3710    -0.7270 ca         1 763      -0.094500
      7 C13         -4.2410     3.7430    -0.8490 ca         1 763      -0.168000
      8 C20          1.5760    -1.2410    -0.6910 c3         1 763      -0.102400
      9 C21          2.9280    -1.8040    -1.0760 c3         1 763       0.149400
     10 C26          7.3590     1.6970    -1.2770 cc         1 763      -0.163200
     11 C28          6.4980     0.2330     0.2470 ca         1 763      -0.011200
     12 C1          -5.4270    -1.9720     0.9730 ca         1 763       0.097100
     13 C2          -5.5720    -0.6060     0.8650 ca         1 763      -0.105000
     14 C3          -4.5100     0.2010     0.4370 cp         1 763      -0.047000
     15 C9          -5.6240     3.7440     1.1310 ca         1 763      -0.168000
     16 C12         -5.0120     4.4070     0.0850 ca         1 763       0.138900
     17 O14         -6.4720    -2.7180     1.3780 oh         1 763      -0.493100
     18 O15         -4.1430    -3.9060     0.7640 oh         1 763      -0.539100
     19 C16         -1.8480    -2.4720    -0.0830 c          1 763       0.694700
     20 N17         -0.7870    -1.7400    -0.4120 ns         1 763      -0.543900
     21 O18         -1.7780    -3.7120    -0.0250 o          1 763      -0.654100
     22 C19          0.5030    -2.3170    -0.7370 c3         1 763       0.102000
     23 O22          3.8840    -0.7710    -0.9800 os         1 763      -0.425600
     24 C23          5.1790    -1.1960    -1.2930 c3         1 763       0.258100
     25 N24          6.0880    -0.1330    -1.0000 na         1 763      -0.065400
     26 C25          6.6010     0.7640    -1.9110 cd         1 763      -0.103100
     27 C27          7.3100     1.3760     0.1160 ca         1 763      -0.222100
     28 C29          7.8560     1.9180     1.2800 ca         1 763       0.455200
     29 N30          7.6310     1.4000     2.4730 nb         1 763      -0.690000
     30 C31          6.8480     0.3140     2.5700 ca         1 763       0.407200
     31 C32          6.2480    -0.3190     1.5000 ca         1 763      -0.255300
     32 H1          -2.4800     0.2380    -0.1740 ha         1 763       0.125000
     33 H2          -5.9160     1.8570     2.0700 ha         1 763       0.136500
     34 H3          -3.5050     1.8460    -1.4750 ha         1 763       0.136500
     35 H4          -3.7800     4.2820    -1.6660 ha         1 763       0.151500
     36 H5           1.6270    -0.8180     0.3160 hc         1 763       0.063200
     37 H6           1.3150    -0.4280    -1.3760 hc         1 763       0.063200
     38 H7           3.1970    -2.6370    -0.4110 h1         1 763       0.027700
     39 H8           2.8930    -2.2090    -2.0960 h1         1 763       0.027700
     40 H10         -6.5350    -0.1670     1.0970 ha         1 763       0.154000
     41 H11         -6.2160     4.2880     1.8550 ha         1 763       0.151500
     42 H12         -6.2340    -3.6540     1.3800 ho         1 763       0.449000
     43 H13         -3.2240    -4.1660     0.4800 ho         1 763       0.497000
     44 H14         -0.8740    -0.7410    -0.4910 hn         1 763       0.324500
     45 H15          0.4690    -2.7790    -1.7280 h1         1 763       0.058200
     46 H16          0.7340    -3.1070    -0.0220 h1         1 763       0.058200
     47 H17          5.4580    -2.0790    -0.7070 h2         1 763       0.044700
     48 H18          5.2800    -1.4510    -2.3530 h2         1 763       0.044700
     49 H19          6.3820     0.6500    -2.9620 h4         1 763       0.164000
     50 H20          8.4920     2.7970     1.2340 h4         1 763       0.020100
     51 H21          6.6920    -0.0710     3.5710 h4         1 763       0.016100
     52 H22          5.6210    -1.1880     1.6490 ha         1 763       0.141000
     53 F11         -5.1730     5.7360    -0.0290 f          1 763      -0.141900
     54 H9           7.8920     2.5090    -1.7450 ha         1 763       0.161000
@<TRIPOS>BOND
     1     1     2 ar  
     2     1    14 ar  
     3     1    32 1   
     4     2     3 ar  
     5     2    19 1   
     6     3    12 ar  
     7     3    18 1   
     8     4     5 ar  
     9     4     6 ar  
    10     4    14 1   
    11     5    15 ar  
    12     5    33 1   
    13     6     7 ar  
    14     6    34 1   
    15     7    16 ar  
    16     7    35 1   
    17     8     9 1   
    18     8    22 1   
    19     8    36 1   
    20     8    37 1   
    21     9    23 1   
    22     9    38 1   
    23     9    39 1   
    24    10    26 2   
    25    10    27 1   
    26    10    54 1   
    27    11    25 1   
    28    11    27 ar  
    29    11    31 ar  
    30    12    13 ar  
    31    12    17 1   
    32    13    14 ar  
    33    13    40 1   
    34    15    16 ar  
    35    15    41 1   
    36    16    53 1   
    37    17    42 1   
    38    18    43 1   
    39    19    20 1   
    40    19    21 2   
    41    20    22 1   
    42    20    44 1   
    43    22    45 1   
    44    22    46 1   
    45    23    24 1   
    46    24    25 1   
    47    24    47 1   
    48    24    48 1   
    49    25    26 1   
    50    26    49 1   
    51    27    28 ar  
    52    28    29 ar  
    53    28    50 1   
    54    29    30 ar  
    55    30    31 ar  
    56    30    51 1   
    57    31    52 1   
@<TRIPOS>SUBSTRUCTURE
     1 763         1 TEMP              0 ****  ****    0 ROOT
