@<TRIPOS>MOLECULE
763
   54    57     1     0     0
SMALL
No Charge or Current Charge


@<TRIPOS>ATOM
      1 C4          -3.3450    -0.5540     0.1650 ca         1 763      -0.072000
      2 C5          -3.3250    -1.9700     0.0660 ca         1 763      -0.232600
      3 C6          -4.5540    -2.6620     0.1760 ca         1 763       0.139100
      4 C7          -4.5450     1.6630     0.4680 cp         1 763      -0.045000
      5 C8          -5.4160     2.3370     1.3620 ca         1 763      -0.076500
      6 C10         -3.6720     2.4480    -0.3290 ca         1 763      -0.076500
      7 C13         -3.6700     3.8510    -0.2350 ca         1 763      -0.150000
      8 C20          1.5390    -1.4930    -0.5330 c3         1 763      -0.102400
      9 C21          2.9440    -2.0790    -0.7510 c3         1 763       0.172600
     10 C26          7.3360     1.6250    -1.6570 cc         1 763      -0.213200
     11 C28          6.5000     0.5130     0.1190 ca         1 763      -0.011200
     12 C1          -5.7590    -1.9590     0.3780 ca         1 763       0.097100
     13 C2          -5.7560    -0.5620     0.4730 ca         1 763      -0.087000
     14 C3          -4.5490     0.1680     0.3670 cp         1 763      -0.047000
     15 C9          -5.4130     3.7400     1.4570 ca         1 763      -0.150000
     16 C12         -4.5400     4.4930     0.6580 ca         1 763       0.174000
     17 O14         -6.9350    -2.6490     0.4780 oh         1 763      -0.532100
     18 O15         -4.5900    -4.0260     0.0870 oh         1 763      -0.578100
     19 C16         -2.0340    -2.7340    -0.1470 c          1 763       0.627700
     20 N17         -0.8770    -1.9990    -0.2460 ns         1 763      -0.476900
     21 O18         -2.0180    -3.9560    -0.2300 o          1 763      -0.654100
     22 C19          0.4510    -2.5780    -0.4530 c3         1 763       0.102000
     23 O22          3.8650    -0.9820    -0.8070 os         1 763      -0.472000
     24 C23          5.2360    -1.3720    -1.0030 c3         1 763       0.310600
     25 N24          6.0550    -0.1490    -1.0170 na         1 763      -0.094700
     26 C25          6.5820     0.5540    -2.1280 cd         1 763      -0.153100
     27 C27          7.2720     1.5830    -0.2230 ca         1 763      -0.156800
     28 C29          7.8370     2.4120     0.7610 ca         1 763       0.389900
     29 N30          7.6280     2.1700     2.0830 nb         1 763      -0.690000
     30 C31          6.8540     1.1010     2.4200 ca         1 763       0.341900
     31 C32          6.2630     0.2380     1.4730 ca         1 763      -0.172000
     32 H1          -2.4210     0.0130     0.1020 ha         1 763       0.107000
     33 H2          -6.0900     1.7680     1.9980 ha         1 763       0.118500
     34 H3          -3.0010     1.9680    -1.0370 ha         1 763       0.118500
     35 H4          -2.9980     4.4410    -0.8540 ha         1 763       0.133500
     36 H5           1.5350    -0.9070     0.3950 hc         1 763       0.063200
     37 H6           1.3060    -0.8060    -1.3560 hc         1 763       0.063200
     38 H7           3.1950    -2.7550     0.0780 h1         1 763       0.027700
     39 H8           2.9640    -2.6520    -1.6880 h1         1 763       0.027700
     40 H10         -6.6990    -0.0410     0.6160 ha         1 763       0.136000
     41 H11         -6.0830     4.2440     2.1490 ha         1 763       0.133500
     42 H12         -6.7030    -3.6010     0.3820 ho         1 763       0.488000
     43 H13         -3.6420    -4.3090    -0.0510 ho         1 763       0.536000
     44 H14         -0.9620    -0.9950    -0.1680 hn         1 763       0.324500
     45 H15          0.4410    -3.1610    -1.3840 h1         1 763       0.058200
     46 H16          0.6720    -3.2620     0.3780 h1         1 763       0.058200
     47 H17          5.5910    -2.0180    -0.1920 h2         1 763       0.044700
     48 H18          5.3710    -1.8880    -1.9600 h2         1 763       0.044700
     49 H19          6.3850     0.2420    -3.1500 h4         1 763       0.214000
     50 H20          8.4560     3.2700     0.4990 h4         1 763       0.020100
     51 H21          6.7020     0.9340     3.4860 h4         1 763       0.016100
     52 H22          5.6490    -0.5990     1.7910 ha         1 763       0.123000
     53 F11         -4.5380     5.8400     0.7490 f          1 763      -0.177000
     54 H9           7.8670     2.3480    -2.2750 ha         1 763       0.211000
@<TRIPOS>BOND
     1     1     2 ar  
     2     1    14 ar  
     3     1    32 1   
     4     2     3 ar  
     5     2    19 1   
     6     3    12 ar  
     7     3    18 1   
     8     4     5 ar  
     9     4     6 ar  
    10     4    14 1   
    11     5    15 ar  
    12     5    33 1   
    13     6     7 ar  
    14     6    34 1   
    15     7    16 ar  
    16     7    35 1   
    17     8     9 1   
    18     8    22 1   
    19     8    36 1   
    20     8    37 1   
    21     9    23 1   
    22     9    38 1   
    23     9    39 1   
    24    10    26 2   
    25    10    27 1   
    26    10    54 1   
    27    11    25 1   
    28    11    27 ar  
    29    11    31 ar  
    30    12    13 ar  
    31    12    17 1   
    32    13    14 ar  
    33    13    40 1   
    34    15    16 ar  
    35    15    41 1   
    36    16    53 1   
    37    17    42 1   
    38    18    43 1   
    39    19    20 1   
    40    19    21 2   
    41    20    22 1   
    42    20    44 1   
    43    22    45 1   
    44    22    46 1   
    45    23    24 1   
    46    24    25 1   
    47    24    47 1   
    48    24    48 1   
    49    25    26 1   
    50    26    49 1   
    51    27    28 ar  
    52    28    29 ar  
    53    28    50 1   
    54    29    30 ar  
    55    30    31 ar  
    56    30    51 1   
    57    31    52 1   
@<TRIPOS>SUBSTRUCTURE
     1 763         1 TEMP              0 ****  ****    0 ROOT
