@<TRIPOS>MOLECULE
765
   51    54     1     0     0
SMALL
abcg2


@<TRIPOS>ATOM
      1 C1           2.4290    -0.4360     1.3350 c3         1 765       0.125600
      2 C2           2.1330     0.8390     0.5700 c3         1 765      -0.118400
      3 C3           1.7340     1.9830     1.5150 c3         1 765       0.022500
      4 N1           0.4830     1.7740     2.2200 n8         1 765      -1.005200
      5 C4           1.6810     3.2950     0.6840 c          1 765       0.720000
      6 O1           0.5640     3.8180     0.5180 o          1 765      -0.707500
      7 C5           1.9090    -1.9870    -0.6050 c3         1 765       0.105600
      8 C6           0.6760    -2.6890    -0.0730 c5         1 765       0.152300
      9 C7          -0.1720    -3.2130    -1.2430 c5         1 765       0.094300
     10 O2           0.1360    -4.5520    -1.4940 oh         1 765      -0.713000
     11 C8          -1.6080    -2.9900    -0.7440 c5         1 765       0.114300
     12 O3          -2.0030    -4.0370     0.0960 oh         1 765      -0.695000
     13 C9          -1.4590    -1.7560     0.1410 c5         1 765       0.312300
     14 O4          -0.1540    -1.8110     0.6630 os         1 765      -0.442000
     15 N2          -1.6790    -0.4950    -0.5290 na         1 765      -0.324300
     16 C10         -2.1690     0.6210     0.0950 ca         1 765       0.140500
     17 C11         -2.0240     1.6490    -0.8180 ca         1 765      -0.093600
     18 N3          -1.4570     1.1900    -1.9790 nc         1 765      -0.504100
     19 C12         -1.2620    -0.0760    -1.7680 cd         1 765       0.352700
     20 N4          -2.6800     0.7140     1.3190 nb         1 765      -0.250000
     21 C13         -3.0600     1.9500     1.5960 ca         1 765       0.203900
     22 N5          -2.9750     3.0310     0.8250 nb         1 765      -0.278000
     23 C14         -2.4530     2.9210    -0.4010 ca         1 765       0.481900
     24 N6          -2.4030     3.9990    -1.1890 nv         1 765      -1.020900
     25 N7           2.8580    -1.5480     0.4410 nk         1 765      -0.550000
     26 C15          4.2930    -1.5920     0.0950 cx         1 765       0.090100
     27 C16          3.7320    -2.5830     1.0230 cx         1 765       0.090100
     28 O5           2.7730     3.6950     0.2350 o          1 765      -0.707500
     29 H1           3.2500    -0.2720     2.0340 hx         1 765       0.091700
     30 H2           1.5790    -0.8010     1.9060 hx         1 765       0.091700
     31 H3           3.0240     1.1380     0.0140 hc         1 765       0.063700
     32 H4           1.3260     0.6930    -0.1530 hc         1 765       0.063700
     33 H5           2.5510     2.0990     2.2410 h1         1 765       0.051700
     34 H6          -0.2350     2.2620     1.6990 hn         1 765       0.398000
     35 H7           0.2180     0.8000     2.2670 hn         1 765       0.398000
     36 H9           2.4440    -2.6790    -1.2560 hx         1 765       0.097200
     37 H10          1.6480    -1.1150    -1.2040 hx         1 765       0.097200
     38 H11          0.9700    -3.5270     0.5700 h1         1 765       0.088700
     39 H12          0.0040    -2.6050    -2.1390 h1         1 765       0.053700
     40 H13         -0.1110    -4.7650    -2.4010 ho         1 765       0.530000
     41 H14         -2.3180    -2.8310    -1.5640 h1         1 765       0.083700
     42 H15         -1.6570    -4.8600    -0.2720 ho         1 765       0.526000
     43 H16         -2.1710    -1.7800     0.9670 h2         1 765       0.152700
     44 H17         -0.8380    -0.7520    -2.4950 h5         1 765       0.041800
     45 H18         -3.4940     2.1090     2.5770 h5         1 765       0.050100
     46 H19         -1.8450     3.9750    -2.0250 hn         1 765       0.505500
     47 H20         -2.5550     4.9040    -0.7760 hn         1 765       0.505500
     48 H21          4.5090    -1.8760    -0.9250 hx         1 765       0.127450
     49 H22          4.8690    -0.7660     0.4880 hx         1 765       0.127450
     50 H23          3.9060    -2.4800     2.0850 hx         1 765       0.127450
     51 H24          3.5390    -3.5880     0.6730 hx         1 765       0.127450
@<TRIPOS>BOND
     1     1     2 1   
     2     1    25 1   
     3     1    29 1   
     4     1    30 1   
     5     2     3 1   
     6     2    31 1   
     7     2    32 1   
     8     3     4 1   
     9     3     5 1   
    10     3    33 1   
    11     4    34 1   
    12     4    35 1   
    13     5     6 1   
    14     5    28 1   
    15     7     8 1   
    16     7    25 1   
    17     7    36 1   
    18     7    37 1   
    19     8     9 1   
    20     8    14 1   
    21     8    38 1   
    22     9    10 1   
    23     9    11 1   
    24     9    39 1   
    25    10    40 1   
    26    11    12 1   
    27    11    13 1   
    28    11    41 1   
    29    12    42 1   
    30    13    14 1   
    31    13    15 1   
    32    13    43 1   
    33    15    16 1   
    34    15    19 1   
    35    16    17 ar  
    36    16    20 ar  
    37    17    18 1   
    38    17    23 ar  
    39    18    19 2   
    40    19    44 1   
    41    20    21 ar  
    42    21    22 ar  
    43    21    45 1   
    44    22    23 ar  
    45    23    24 1   
    46    24    46 1   
    47    24    47 1   
    48    25    26 1   
    49    25    27 1   
    50    26    27 1   
    51    26    48 1   
    52    26    49 1   
    53    27    50 1   
    54    27    51 1   
@<TRIPOS>SUBSTRUCTURE
     1 765         1 TEMP              0 ****  ****    0 ROOT
