@<TRIPOS>MOLECULE
765
   51    54     1     0     0
SMALL
No Charge or Current Charge


@<TRIPOS>ATOM
      1 C1           2.4050    -0.4750     1.3310 c3         1 765       0.125600
      2 C2           1.9110     0.9470     1.0070 c3         1 765      -0.118400
      3 C3           1.6650     1.8120     2.2680 c3         1 765       0.022500
      4 N1           0.4950     1.2630     3.0430 n8         1 765      -1.005200
      5 C4           1.6150     3.3590     1.9120 c          1 765       0.720000
      6 O1           0.8840     3.7310     1.0030 o          1 765      -0.707500
      7 C5           1.5390    -1.7970    -0.7250 c3         1 765       0.105600
      8 C6           0.5460    -2.7600    -0.0260 c5         1 765       0.152300
      9 C7          -0.4030    -3.5330    -1.0170 c5         1 765       0.094300
     10 O2          -0.2440    -4.9680    -0.9540 oh         1 765      -0.713000
     11 C8          -1.8430    -3.1410    -0.5440 c5         1 765       0.114300
     12 O3          -2.3260    -4.1880     0.3060 oh         1 765      -0.695000
     13 C9          -1.5870    -1.8010     0.2180 c5         1 765       0.312300
     14 O4          -0.3200    -2.0230     0.8720 os         1 765      -0.442000
     15 N2          -1.5510    -0.5560    -0.5610 na         1 765      -0.324300
     16 C10         -1.8520     0.7090    -0.1240 ca         1 765       0.140500
     17 C11         -1.8130     1.5380    -1.2160 ca         1 765      -0.093600
     18 N3          -1.4930     0.8620    -2.3860 nc         1 765      -0.504100
     19 C12         -1.3580    -0.3990    -1.9480 cd         1 765       0.352700
     20 N4          -2.1620     1.1640     1.1060 nb         1 765      -0.250000
     21 C13         -2.4310     2.4880     1.1980 ca         1 765       0.203900
     22 N5          -2.4230     3.3880     0.1870 nb         1 765      -0.278000
     23 C14         -2.1070     2.9040    -1.0240 ca         1 765       0.481900
     24 N6          -2.1080     3.8010    -2.0490 nv         1 765      -1.020900
     25 N7           2.7270    -1.2930     0.0900 nk         1 765      -0.550000
     26 C15          3.9890    -0.9410    -0.6650 cx         1 765       0.090100
     27 C16          3.9370    -2.1960     0.1660 cx         1 765       0.090100
     28 O5           2.3090     4.1250     2.5690 o          1 765      -0.707500
     29 H1           3.3150    -0.4150     1.9330 hx         1 765       0.091700
     30 H2           1.6460    -1.0210     1.8950 hx         1 765       0.091700
     31 H3           2.6710     1.4390     0.3880 hc         1 765       0.063700
     32 H4           1.0000     0.8950     0.4010 hc         1 765       0.063700
     33 H5           2.5500     1.6950     2.9100 h1         1 765       0.051700
     34 H6          -0.3510     1.3540     2.4670 hn         1 765       0.398000
     35 H7           0.5980     0.2490     3.1550 hn         1 765       0.398000
     36 H9           1.9520    -2.3170    -1.5920 hx         1 765       0.097200
     37 H10          0.9910    -0.9210    -1.0750 hx         1 765       0.097200
     38 H11          1.1370    -3.4660     0.5720 h1         1 765       0.088700
     39 H12         -0.2400    -3.1860    -2.0470 h1         1 765       0.053700
     40 H13          0.5250    -5.2150    -1.5260 ho         1 765       0.530000
     41 H14         -2.5240    -2.9930    -1.3950 h1         1 765       0.083700
     42 H15         -1.6640    -4.9060     0.1090 ho         1 765       0.526000
     43 H16         -2.3740    -1.6500     0.9680 h2         1 765       0.152700
     44 H17         -1.1310    -1.2470    -2.5820 h5         1 765       0.041800
     45 H18         -2.6850     2.8670     2.1870 h5         1 765       0.050100
     46 H19         -1.6680     3.4980    -2.9130 hn         1 765       0.505500
     47 H20         -2.0170     4.7860    -1.8170 hn         1 765       0.505500
     48 H21          3.9200    -1.0140    -1.7470 hx         1 765       0.127450
     49 H22          4.5280    -0.0760    -0.2910 hx         1 765       0.127450
     50 H23          4.4420    -2.2190     1.1280 hx         1 765       0.127450
     51 H24          3.8350    -3.1580    -0.3270 hx         1 765       0.127450
@<TRIPOS>BOND
     1     1     2 1   
     2     1    25 1   
     3     1    29 1   
     4     1    30 1   
     5     2     3 1   
     6     2    31 1   
     7     2    32 1   
     8     3     4 1   
     9     3     5 1   
    10     3    33 1   
    11     4    34 1   
    12     4    35 1   
    13     5     6 1   
    14     5    28 1   
    15     7     8 1   
    16     7    25 1   
    17     7    36 1   
    18     7    37 1   
    19     8     9 1   
    20     8    14 1   
    21     8    38 1   
    22     9    10 1   
    23     9    11 1   
    24     9    39 1   
    25    10    40 1   
    26    11    12 1   
    27    11    13 1   
    28    11    41 1   
    29    12    42 1   
    30    13    14 1   
    31    13    15 1   
    32    13    43 1   
    33    15    16 1   
    34    15    19 1   
    35    16    17 ar  
    36    16    20 ar  
    37    17    18 1   
    38    17    23 ar  
    39    18    19 2   
    40    19    44 1   
    41    20    21 ar  
    42    21    22 ar  
    43    21    45 1   
    44    22    23 ar  
    45    23    24 1   
    46    24    46 1   
    47    24    47 1   
    48    25    26 1   
    49    25    27 1   
    50    26    27 1   
    51    26    48 1   
    52    26    49 1   
    53    27    50 1   
    54    27    51 1   
@<TRIPOS>SUBSTRUCTURE
     1 765         1 TEMP              0 ****  ****    0 ROOT
