@<TRIPOS>MOLECULE
766
   52    55     1     0     0
SMALL
No Charge or Current Charge


@<TRIPOS>ATOM
      1 N1           0.7600    -1.4270     0.0630 ns         1 766      -0.510900
      2 C4          -2.9430    -0.3290     0.0590 c3         1 766      -0.074400
      3 C5          -3.6690     1.0040     0.3410 c3         1 766      -0.015200
      4 C6          -5.1630     0.8890     0.2030 cc         1 766      -0.042600
      5 C8          -6.0980     0.7780     1.2150 cd         1 766      -0.161200
      6 C10         -7.5330     0.7330    -0.6080 ca         1 766      -0.135000
      7 C17          5.8540    -1.3420     0.2930 ca         1 766      -0.135000
      8 C20          4.8910    -0.3320     0.0670 cp         1 766      -0.041000
      9 C21          5.2930     1.1070    -0.0270 cp         1 766      -0.045000
     10 C22          1.6620    -2.4450    -0.1650 c          1 766       0.624700
     11 C24          5.4740    -2.6890     0.3760 ca         1 766       0.036100
     12 C26          4.8470     3.4860     0.4110 ca         1 766      -0.150000
     13 C28          6.8900     2.8380    -0.7360 ca         1 766      -0.150000
     14 C2          -0.6900    -1.5580    -0.0800 c3         1 766       0.104000
     15 C3          -1.4080    -0.2260     0.2040 c3         1 766      -0.095400
     16 S7          -5.9450     0.8900    -1.4070 ss         1 766       0.061400
     17 C9          -7.4680     0.6860     0.7650 ca         1 766      -0.131800
     18 C11         -8.7880     0.6570    -1.2300 ca         1 766      -0.130000
     19 C12         -9.9280     0.5350    -0.4060 ca         1 766       0.337900
     20 N13         -9.8680     0.4880     0.9530 nb         1 766      -0.670000
     21 C14         -8.6410     0.5640     1.5340 ca         1 766       0.380900
     22 O15          6.4230    -3.6540     0.6090 oh         1 766      -0.556100
     23 O16          3.8250    -4.3840     0.3570 oh         1 766      -0.506100
     24 C18          3.1250    -2.0770     0.0050 ca         1 766      -0.167600
     25 C19          3.5350    -0.7200    -0.0750 ca         1 766      -0.075000
     26 C23          4.1210    -3.0580     0.2330 ca         1 766       0.176100
     27 C25          4.4680     2.1340     0.5000 ca         1 766      -0.076500
     28 C27          6.0560     3.8330    -0.2070 ca         1 766       0.174000
     29 C29          6.5120     1.4870    -0.6470 ca         1 766      -0.076500
     30 F30          6.4190     5.1310    -0.2930 f          1 766      -0.177000
     31 O31          1.2730    -3.5470    -0.5260 o          1 766      -0.576100
     32 H1           1.1360    -0.5440     0.3800 hn         1 766       0.312500
     33 H2          -3.3210    -1.0950     0.7470 hc         1 766       0.051200
     34 H3          -3.1880    -0.6630    -0.9570 hc         1 766       0.051200
     35 H4          -3.4180     1.3450     1.3530 hc         1 766       0.054200
     36 H5          -3.2980     1.7720    -0.3480 hc         1 766       0.054200
     37 H6          -5.8170     0.7600     2.2650 ha         1 766       0.206000
     38 H7           6.8980    -1.0680     0.4190 ha         1 766       0.118000
     39 H8           4.2060     4.2620     0.8230 ha         1 766       0.133500
     40 H9           7.8250     3.1150    -1.2170 ha         1 766       0.133500
     41 H10         -0.9180    -1.8890    -1.1030 h1         1 766       0.054700
     42 H11         -1.0470    -2.3270     0.6190 h1         1 766       0.054700
     43 H12         -1.0310     0.5400    -0.4860 hc         1 766       0.042700
     44 H13         -1.1630     0.1050     1.2210 hc         1 766       0.042700
     45 H14         -8.8880     0.6900    -2.3110 ha         1 766       0.131000
     46 H15        -10.9220     0.4720    -0.8480 h4         1 766       0.020100
     47 H16         -8.6040     0.5260     2.6230 h4         1 766       0.022100
     48 H17          7.3050    -3.2260     0.6850 ho         1 766       0.479000
     49 H18          4.6880    -4.8280     0.5180 ho         1 766       0.485000
     50 H19          2.8050     0.0560    -0.2880 ha         1 766       0.124000
     51 H20          3.5330     1.8810     0.9950 ha         1 766       0.117000
     52 H21          7.1640     0.7280    -1.0740 ha         1 766       0.117000
@<TRIPOS>BOND
     1     1    10 1   
     2     1    14 1   
     3     1    32 1   
     4     2     3 1   
     5     2    15 1   
     6     2    33 1   
     7     2    34 1   
     8     3     4 1   
     9     3    35 1   
    10     3    36 1   
    11     4     5 2   
    12     4    16 1   
    13     5    17 1   
    14     5    37 1   
    15     6    16 1   
    16     6    17 ar  
    17     6    18 ar  
    18     7     8 ar  
    19     7    11 ar  
    20     7    38 1   
    21     8     9 1   
    22     8    25 ar  
    23     9    27 ar  
    24     9    29 ar  
    25    10    24 1   
    26    10    31 2   
    27    11    22 1   
    28    11    26 ar  
    29    12    27 ar  
    30    12    28 ar  
    31    12    39 1   
    32    13    28 ar  
    33    13    29 ar  
    34    13    40 1   
    35    14    15 1   
    36    14    41 1   
    37    14    42 1   
    38    15    43 1   
    39    15    44 1   
    40    17    21 ar  
    41    18    19 ar  
    42    18    45 1   
    43    19    20 ar  
    44    19    46 1   
    45    20    21 ar  
    46    21    47 1   
    47    22    48 1   
    48    23    26 1   
    49    23    49 1   
    50    24    25 ar  
    51    24    26 ar  
    52    25    50 1   
    53    27    51 1   
    54    28    30 1   
    55    29    52 1   
@<TRIPOS>SUBSTRUCTURE
     1 766         1 TEMP              0 ****  ****    0 ROOT
