@<TRIPOS>MOLECULE
766
   52    55     1     0     0
SMALL
abcg2


@<TRIPOS>ATOM
      1 N1           0.7380    -1.5120     0.2050 ns         1 766      -0.510900
      2 C4          -2.8960    -0.4230     0.1690 c3         1 766      -0.074400
      3 C5          -3.6080     0.8720     0.5640 c3         1 766      -0.015200
      4 C6          -5.0870     0.8060     0.3820 cc         1 766      -0.042600
      5 C8          -6.0490     0.8060     1.3320 cd         1 766      -0.161200
      6 C10         -7.3680     0.6330    -0.6120 ca         1 766      -0.135000
      7 C17          5.7240    -1.2550     0.3100 ca         1 766      -0.135000
      8 C20          4.8120    -0.2420     0.0020 cp         1 766      -0.041000
      9 C21          5.2560     1.1610    -0.1030 cp         1 766      -0.045000
     10 C22          1.6420    -2.2660    -0.4400 c          1 766       0.624700
     11 C24          5.3190    -2.5730     0.3970 ca         1 766       0.036100
     12 C26          4.8480     3.5280     0.2350 ca         1 766      -0.150000
     13 C28          6.9310     2.7950    -0.7430 ca         1 766      -0.150000
     14 C2          -0.6900    -1.6220    -0.0040 c3         1 766       0.104000
     15 C3          -1.3930    -0.3320     0.3870 c3         1 766      -0.095400
     16 S7          -5.7560     0.6810    -1.2300 ss         1 766       0.061400
     17 C9          -7.3720     0.7080     0.7890 ca         1 766      -0.131800
     18 C11         -8.5650     0.5380    -1.3110 ca         1 766      -0.130000
     19 C12         -9.7240     0.5220    -0.5600 ca         1 766       0.337900
     20 N13         -9.7540     0.5910     0.7770 nb         1 766      -0.670000
     21 C14         -8.6120     0.6810     1.4310 ca         1 766       0.380900
     22 O15          6.1420    -3.5970     0.7100 oh         1 766      -0.556100
     23 O16          3.5700    -4.1990     0.2680 oh         1 766      -0.506100
     24 C18          3.0650    -1.9210    -0.1320 ca         1 766      -0.167600
     25 C19          3.4850    -0.5930    -0.2080 ca         1 766      -0.075000
     26 C23          3.9800    -2.9240     0.1680 ca         1 766       0.176100
     27 C25          4.4410     2.2070     0.3330 ca         1 766      -0.076500
     28 C27          6.0910     3.7990    -0.3020 ca         1 766       0.174000
     29 C29          6.5040     1.4800    -0.6420 ca         1 766      -0.076500
     30 F30          6.4980     5.0760    -0.3940 f          1 766      -0.177000
     31 O31          1.3410    -3.1390    -1.2410 o          1 766      -0.576100
     32 H1           1.0590    -0.9070     0.9450 hn         1 766       0.312500
     33 H2          -3.3090    -1.2540     0.7500 hc         1 766       0.051200
     34 H3          -3.0970    -0.6510    -0.8820 hc         1 766       0.051200
     35 H4          -3.4080     1.0970     1.6140 hc         1 766       0.054200
     36 H5          -3.1980     1.7020    -0.0180 hc         1 766       0.054200
     37 H6          -5.8360     0.8760     2.3890 ha         1 766       0.206000
     38 H7           6.7610    -1.0100     0.5100 ha         1 766       0.118000
     39 H8           4.2110     4.3320     0.5820 ha         1 766       0.133500
     40 H9           7.8970     3.0330    -1.1680 ha         1 766       0.133500
     41 H10         -0.8710    -1.8410    -1.0570 h1         1 766       0.054700
     42 H11         -1.1010    -2.4590     0.5700 h1         1 766       0.054700
     43 H12         -0.9830     0.4970    -0.1980 hc         1 766       0.042700
     44 H13         -1.1910    -0.1040     1.4390 hc         1 766       0.042700
     45 H14         -8.6040     0.4810    -2.3900 ha         1 766       0.131000
     46 H15        -10.6840     0.4510    -1.0580 h4         1 766       0.020100
     47 H16         -8.6650     0.7350     2.5140 h4         1 766       0.022100
     48 H17          7.0350    -3.2850     0.8940 ho         1 766       0.479000
     49 H18          4.3050    -4.7660     0.5330 ho         1 766       0.485000
     50 H19          2.7650     0.1680    -0.4820 ha         1 766       0.124000
     51 H20          3.4780     1.9920     0.7790 ha         1 766       0.117000
     52 H21          7.1530     0.6940    -1.0070 ha         1 766       0.117000
@<TRIPOS>BOND
     1     1    10 1   
     2     1    14 1   
     3     1    32 1   
     4     2     3 1   
     5     2    15 1   
     6     2    33 1   
     7     2    34 1   
     8     3     4 1   
     9     3    35 1   
    10     3    36 1   
    11     4     5 2   
    12     4    16 1   
    13     5    17 1   
    14     5    37 1   
    15     6    16 1   
    16     6    17 ar  
    17     6    18 ar  
    18     7     8 ar  
    19     7    11 ar  
    20     7    38 1   
    21     8     9 1   
    22     8    25 ar  
    23     9    27 ar  
    24     9    29 ar  
    25    10    24 1   
    26    10    31 2   
    27    11    22 1   
    28    11    26 ar  
    29    12    27 ar  
    30    12    28 ar  
    31    12    39 1   
    32    13    28 ar  
    33    13    29 ar  
    34    13    40 1   
    35    14    15 1   
    36    14    41 1   
    37    14    42 1   
    38    15    43 1   
    39    15    44 1   
    40    17    21 ar  
    41    18    19 ar  
    42    18    45 1   
    43    19    20 ar  
    44    19    46 1   
    45    20    21 ar  
    46    21    47 1   
    47    22    48 1   
    48    23    26 1   
    49    23    49 1   
    50    24    25 ar  
    51    24    26 ar  
    52    25    50 1   
    53    27    51 1   
    54    28    30 1   
    55    29    52 1   
@<TRIPOS>SUBSTRUCTURE
     1 766         1 TEMP              0 ****  ****    0 ROOT
