@<TRIPOS>MOLECULE
767
   51    52     1     0     0
SMALL
abcg2


@<TRIPOS>ATOM
      1 C2           7.8180     1.4880    -0.7050 c3         1 767       0.149600
      2 N1           6.9340     0.4160    -0.3000 n3         1 767      -0.714600
      3 C1           7.3720    -0.1510     0.9570 c3         1 767       0.149600
      4 C3           5.5540     0.8660    -0.2550 c3         1 767       0.169800
      5 C4           4.5530    -0.2770    -0.1800 c3         1 767      -0.098400
      6 C5           3.1200     0.2300    -0.2560 c3         1 767       0.238800
      7 N2           2.2030    -0.8810    -0.2060 nu         1 767      -0.928100
      8 C6           0.8630    -0.7510    -0.0940 ca         1 767       0.422900
      9 N3           0.1760    -1.9080    -0.1820 nb         1 767      -0.336000
     10 C7          -1.1350    -1.8740    -0.0690 ca         1 767       0.435900
     11 N4          -1.7910    -3.0620    -0.1030 nh         1 767      -0.784300
     12 C8          -1.0740    -4.2490    -0.5200 c3         1 767       0.211100
     13 N6           0.3590     0.4430     0.1300 nb         1 767      -0.285000
     14 C20         -0.9910     0.5130     0.1780 ca         1 767       0.110000
     15 C21         -1.8210    -0.6140     0.0430 ca         1 767      -0.207000
     16 C27         -1.5880     1.7860     0.3330 ca         1 767      -0.207000
     17 C25         -2.9500     1.9390     0.2900 ca         1 767       0.166100
     18 O2          -3.6000     3.1010     0.4250 os         1 767      -0.318100
     19 C26         -2.8390     4.2730     0.6480 c3         1 767       0.143900
     20 C23         -3.7870     0.8060     0.0630 ca         1 767       0.080100
     21 C22         -3.2200    -0.4330    -0.0640 ca         1 767      -0.127000
     22 O1          -5.1060     1.0760    -0.0150 os         1 767      -0.321100
     23 C24         -5.9910    -0.0120    -0.1740 c3         1 767       0.145900
     24 H1           8.8380     1.1120    -0.8050 h1         1 767       0.030200
     25 H2           7.5120     1.8840    -1.6740 h1         1 767       0.030200
     26 H3           7.8440     2.3280     0.0090 h1         1 767       0.030200
     27 H5           7.3320     0.5680     1.7900 h1         1 767       0.030200
     28 H6           6.7670    -1.0140     1.2340 h1         1 767       0.030200
     29 H7           8.4030    -0.4960     0.8670 h1         1 767       0.030200
     30 H8           5.3840     1.5660     0.5830 h1         1 767       0.032200
     31 H9           5.3610     1.4340    -1.1690 h1         1 767       0.032200
     32 H10          4.7430    -0.9670    -1.0070 hc         1 767       0.052200
     33 H11          4.6720    -0.8460     0.7450 hc         1 767       0.052200
     34 H12          2.9210     0.9040     0.5810 h1         1 767       0.048700
     35 H13          2.9810     0.8220    -1.1700 h1         1 767       0.048700
     36 H14          2.5330    -1.7830    -0.5070 hn         1 767       0.499000
     37 H16         -0.4960    -4.6980     0.2930 h1         1 767       0.040867
     38 H17         -1.7990    -4.9840    -0.8680 h1         1 767       0.040867
     39 H18         -0.3960    -4.0240    -1.3390 h1         1 767       0.040867
     40 H19         -0.9270     2.6310     0.4630 ha         1 767       0.137000
     41 H20         -2.2620     4.2110     1.5740 h1         1 767       0.043367
     42 H21         -2.1580     4.4790    -0.1810 h1         1 767       0.043367
     43 H22         -3.5500     5.0910     0.7310 h1         1 767       0.043367
     44 H23         -3.8510    -1.2810    -0.2780 ha         1 767       0.120000
     45 H24         -6.9970     0.3990    -0.1470 h1         1 767       0.037367
     46 H25         -5.8480    -0.5220    -1.1320 h1         1 767       0.037367
     47 H26         -5.8850    -0.7440     0.6320 h1         1 767       0.037367
     48 C9          -2.9630    -3.3340     0.7110 c3         1 767       0.211100
     49 H4          -3.1460    -2.5370     1.4270 h1         1 767       0.040867
     50 H15         -3.8630    -3.4860     0.1120 h1         1 767       0.040867
     51 H27         -2.7910    -4.2450     1.2880 h1         1 767       0.040867
@<TRIPOS>BOND
     1     1     2 1   
     2     1    24 1   
     3     1    25 1   
     4     1    26 1   
     5     2     3 1   
     6     2     4 1   
     7     3    27 1   
     8     3    28 1   
     9     3    29 1   
    10     4     5 1   
    11     4    30 1   
    12     4    31 1   
    13     5     6 1   
    14     5    32 1   
    15     5    33 1   
    16     6     7 1   
    17     6    34 1   
    18     6    35 1   
    19     7     8 1   
    20     7    36 1   
    21     8     9 ar  
    22     8    13 ar  
    23     9    10 ar  
    24    10    11 1   
    25    10    15 ar  
    26    11    12 1   
    27    11    48 1   
    28    12    37 1   
    29    12    38 1   
    30    12    39 1   
    31    13    14 ar  
    32    14    15 ar  
    33    14    16 ar  
    34    15    21 ar  
    35    16    17 ar  
    36    16    40 1   
    37    17    18 1   
    38    17    20 ar  
    39    18    19 1   
    40    19    41 1   
    41    19    42 1   
    42    19    43 1   
    43    20    21 ar  
    44    20    22 1   
    45    21    44 1   
    46    22    23 1   
    47    23    45 1   
    48    23    46 1   
    49    23    47 1   
    50    48    49 1   
    51    48    50 1   
    52    48    51 1   
@<TRIPOS>SUBSTRUCTURE
     1 767         1 TEMP              0 ****  ****    0 ROOT
