@<TRIPOS>MOLECULE
767
   51    52     1     0     0
SMALL
No Charge or Current Charge


@<TRIPOS>ATOM
      1 C2           7.9920     1.5830    -0.4960 c3         1 767       0.149600
      2 N1           7.0690     0.4440    -0.2920 n3         1 767      -0.714600
      3 C1           7.5610    -0.4820     0.7570 c3         1 767       0.149600
      4 C3           5.6670     0.8920    -0.0910 c3         1 767       0.169800
      5 C4           4.6130    -0.2370    -0.1180 c3         1 767      -0.098400
      6 C5           3.1750     0.3100    -0.0630 c3         1 767       0.238800
      7 N2           2.2000    -0.7920    -0.0900 nu         1 767      -0.928100
      8 C6           0.8210    -0.6930    -0.0520 ca         1 767       0.422900
      9 N3           0.1730    -1.8590    -0.0950 nb         1 767      -0.336000
     10 C7          -1.1690    -1.7990    -0.0560 ca         1 767       0.435900
     11 N4          -1.8280    -3.0490    -0.0680 nh         1 767      -0.784300
     12 C8          -1.3890    -4.1220    -0.9880 c3         1 767       0.211100
     13 N6           0.2800     0.5330     0.0240 nb         1 767      -0.285000
     14 C20         -1.0630     0.6150     0.0510 ca         1 767       0.110000
     15 C21         -1.8530    -0.5570     0.0050 ca         1 767      -0.207000
     16 C27         -1.6890     1.8700     0.1180 ca         1 767      -0.207000
     17 C25         -3.0970     1.9780     0.1310 ca         1 767       0.166100
     18 O2          -3.7340     3.2070     0.1960 os         1 767      -0.318100
     19 C26         -3.0130     4.4490     0.2640 c3         1 767       0.143900
     20 C23         -3.8900     0.8090     0.0660 ca         1 767       0.080100
     21 C22         -3.2630    -0.4560    -0.0010 ca         1 767      -0.127000
     22 O1          -5.2700     0.9420     0.0670 os         1 767      -0.321100
     23 C24         -6.1580    -0.1890     0.0090 c3         1 767       0.145900
     24 H1           9.0050     1.2270    -0.7260 h1         1 767       0.030200
     25 H2           7.6580     2.2090    -1.3340 h1         1 767       0.030200
     26 H3           8.0440     2.2110     0.4040 h1         1 767       0.030200
     27 H5           7.5200    -0.0080     1.7470 h1         1 767       0.030200
     28 H6           6.9660    -1.4030     0.7880 h1         1 767       0.030200
     29 H7           8.6020    -0.7720     0.5590 h1         1 767       0.030200
     30 H8           5.5800     1.4320     0.8630 h1         1 767       0.032200
     31 H9           5.4040     1.6060    -0.8850 h1         1 767       0.032200
     32 H10          4.7430    -0.8250    -1.0350 hc         1 767       0.052200
     33 H11          4.7690    -0.9090     0.7330 hc         1 767       0.052200
     34 H12          3.0490     0.9000     0.8550 h1         1 767       0.048700
     35 H13          3.0090     0.9780    -0.9200 h1         1 767       0.048700
     36 H14          2.5600    -1.7440    -0.1490 hn         1 767       0.499000
     37 H16         -0.5490    -4.6820    -0.5560 h1         1 767       0.040867
     38 H17         -2.2130    -4.8220    -1.1830 h1         1 767       0.040867
     39 H18         -1.0740    -3.6990    -1.9510 h1         1 767       0.040867
     40 H19         -1.0610     2.7540     0.1570 ha         1 767       0.137000
     41 H20         -2.3790     4.4850     1.1590 h1         1 767       0.043367
     42 H21         -2.3810     4.5830    -0.6230 h1         1 767       0.043367
     43 H22         -3.7140     5.2920     0.3110 h1         1 767       0.043367
     44 H23         -3.8620    -1.3570    -0.0700 ha         1 767       0.120000
     45 H24         -7.2020     0.1470     0.0260 h1         1 767       0.037367
     46 H25         -6.0010    -0.7620    -0.9130 h1         1 767       0.037367
     47 H26         -6.0010    -0.8530     0.8690 h1         1 767       0.037367
     48 C9          -2.6390    -3.4680     1.0960 c3         1 767       0.211100
     49 H4          -2.6970    -2.6630     1.8410 h1         1 767       0.040867
     50 H15         -3.6610    -3.7170     0.7820 h1         1 767       0.040867
     51 H27         -2.1930    -4.3470     1.5810 h1         1 767       0.040867
@<TRIPOS>BOND
     1     1     2 1   
     2     1    24 1   
     3     1    25 1   
     4     1    26 1   
     5     2     3 1   
     6     2     4 1   
     7     3    27 1   
     8     3    28 1   
     9     3    29 1   
    10     4     5 1   
    11     4    30 1   
    12     4    31 1   
    13     5     6 1   
    14     5    32 1   
    15     5    33 1   
    16     6     7 1   
    17     6    34 1   
    18     6    35 1   
    19     7     8 1   
    20     7    36 1   
    21     8     9 ar  
    22     8    13 ar  
    23     9    10 ar  
    24    10    11 1   
    25    10    15 ar  
    26    11    12 1   
    27    11    48 1   
    28    12    37 1   
    29    12    38 1   
    30    12    39 1   
    31    13    14 ar  
    32    14    15 ar  
    33    14    16 ar  
    34    15    21 ar  
    35    16    17 ar  
    36    16    40 1   
    37    17    18 1   
    38    17    20 ar  
    39    18    19 1   
    40    19    41 1   
    41    19    42 1   
    42    19    43 1   
    43    20    21 ar  
    44    20    22 1   
    45    21    44 1   
    46    22    23 1   
    47    23    45 1   
    48    23    46 1   
    49    23    47 1   
    50    48    49 1   
    51    48    50 1   
    52    48    51 1   
@<TRIPOS>SUBSTRUCTURE
     1 767         1 TEMP              0 ****  ****    0 ROOT
