@<TRIPOS>MOLECULE
768
   59    62     1     0     0
SMALL
No Charge or Current Charge


@<TRIPOS>ATOM
      1 O1          -1.4600     1.6500     0.6650 oh         1 768      -0.625000
      2 C16         -1.3620     0.5120    -0.2150 c3         1 768       0.142300
      3 C17         -2.7370     0.2460    -0.8760 c3         1 768       0.127600
      4 O2          -3.7170     0.1100     0.1720 os         1 768      -0.310100
      5 C18         -5.0520    -0.1370    -0.0880 ca         1 768       0.154100
      6 C19         -5.5450    -0.2840    -1.4060 ca         1 768      -0.192000
      7 C20         -6.9130    -0.5360    -1.6220 ca         1 768      -0.062000
      8 C21         -7.7920    -0.6410    -0.5320 ca         1 768       0.085000
      9 Cl1         -9.5000    -0.9560    -0.8090 cl         1 768      -0.195000
     10 C22         -7.3100    -0.4960     0.7780 ca         1 768      -0.061000
     11 C23         -5.9450    -0.2450     1.0010 ca         1 768       0.084000
     12 Cl2         -5.3670    -0.0660     2.6590 cl         1 768      -0.168000
     13 C15         -0.2520     0.7420    -1.2700 c3         1 768       0.070600
     14 N3           1.1070     0.8230    -0.6970 na         1 768      -0.224600
     15 C14          1.9380    -0.2210    -0.2970 cc         1 768       0.604300
     16 N4           1.6490    -1.4800    -0.3490 n2         1 768      -0.902100
     17 C13          1.7940     2.0100    -0.4910 ca         1 768      -0.012200
     18 C12          1.3990     3.3370    -0.7210 ca         1 768      -0.117000
     19 C11          2.3190     4.3630    -0.4170 ca         1 768      -0.109000
     20 C10          3.5980     4.0510     0.1040 ca         1 768      -0.112000
     21 C9           3.9700     2.7090     0.3320 ca         1 768      -0.113000
     22 C8           3.0370     1.7070     0.0240 ca         1 768      -0.024200
     23 N2           3.1370     0.3310     0.1520 na         1 768      -0.274600
     24 C7           4.3450    -0.3480     0.6610 c3         1 768       0.087600
     25 C6           5.4230    -0.5530    -0.4300 c3         1 768       0.139800
     26 N1           6.7100    -1.1230     0.0510 n3         1 768      -0.721600
     27 C5           7.7640    -1.0660    -1.0020 c6         1 768       0.167300
     28 C4           9.1390    -1.5350    -0.4670 c6         1 768      -0.075400
     29 C3           9.0460    -2.9590     0.1260 c6         1 768      -0.075400
     30 C2           7.9220    -3.0180     1.1850 c6         1 768      -0.075400
     31 C1           6.5800    -2.5040     0.6070 c6         1 768       0.167300
     32 HO1         -2.3050     1.5460     1.1550 ho         1 768       0.434000
     33 H16         -1.0970    -0.3890     0.3580 h1         1 768       0.114700
     34 H17         -2.9930     1.0820    -1.5400 h1         1 768       0.040200
     35 H17A        -2.6810    -0.6720    -1.4740 h1         1 768       0.040200
     36 H19         -4.8890    -0.2070    -2.2680 ha         1 768       0.122000
     37 H20         -7.2930    -0.6490    -2.6350 ha         1 768       0.131000
     38 H22         -7.9920    -0.5780     1.6200 ha         1 768       0.145000
     39 H15         -0.2660    -0.0940    -1.9810 h1         1 768       0.064200
     40 H15A        -0.4700     1.6510    -1.8430 h1         1 768       0.064200
     41 HN4          2.4550    -2.0140     0.0010 hn         1 768       0.396400
     42 H12          0.4150     3.5780    -1.1150 ha         1 768       0.113000
     43 H11          2.0440     5.4020    -0.5840 ha         1 768       0.115000
     44 H10          4.2980     4.8510     0.3320 ha         1 768       0.116000
     45 H9           4.9510     2.4680     0.7330 ha         1 768       0.123000
     46 H7           4.7700     0.2470     1.4790 h1         1 768       0.065200
     47 H7A          4.0530    -1.3170     1.0820 h1         1 768       0.065200
     48 H6           5.0030    -1.1910    -1.2200 h1         1 768       0.041200
     49 H6A          5.6140     0.4280    -0.8850 h1         1 768       0.041200
     50 H5           7.4790    -1.6950    -1.8580 h1         1 768       0.030200
     51 H5A          7.8680    -0.0380    -1.3790 h1         1 768       0.030200
     52 H4           9.8800    -1.5110    -1.2760 hc         1 768       0.047450
     53 H4A          9.4900    -0.8330     0.3030 hc         1 768       0.047450
     54 H3           8.8390    -3.6820    -0.6760 hc         1 768       0.040700
     55 H3A         10.0060    -3.2470     0.5740 hc         1 768       0.040700
     56 H2           7.8010    -4.0480     1.5470 hc         1 768       0.047450
     57 H2A          8.2010    -2.4100     2.0560 hc         1 768       0.047450
     58 H1           5.8340    -2.5320     1.4120 h1         1 768       0.030200
     59 H1A          6.2380    -3.1970    -0.1760 h1         1 768       0.030200
@<TRIPOS>BOND
     1     1     2 1   
     2     1    32 1   
     3     2     3 1   
     4     2    13 1   
     5     2    33 1   
     6     3     4 1   
     7     3    34 1   
     8     3    35 1   
     9     4     5 1   
    10     5     6 ar  
    11     5    11 ar  
    12     6     7 ar  
    13     6    36 1   
    14     7     8 ar  
    15     7    37 1   
    16     8     9 1   
    17     8    10 ar  
    18    10    11 ar  
    19    10    38 1   
    20    11    12 1   
    21    13    14 1   
    22    13    39 1   
    23    13    40 1   
    24    14    15 1   
    25    14    17 1   
    26    15    16 2   
    27    15    23 1   
    28    16    41 1   
    29    17    18 ar  
    30    17    22 ar  
    31    18    19 ar  
    32    18    42 1   
    33    19    20 ar  
    34    19    43 1   
    35    20    21 ar  
    36    20    44 1   
    37    21    22 ar  
    38    21    45 1   
    39    22    23 1   
    40    23    24 1   
    41    24    25 1   
    42    24    46 1   
    43    24    47 1   
    44    25    26 1   
    45    25    48 1   
    46    25    49 1   
    47    26    27 1   
    48    26    31 1   
    49    27    28 1   
    50    27    50 1   
    51    27    51 1   
    52    28    29 1   
    53    28    52 1   
    54    28    53 1   
    55    29    30 1   
    56    29    54 1   
    57    29    55 1   
    58    30    31 1   
    59    30    56 1   
    60    30    57 1   
    61    31    58 1   
    62    31    59 1   
@<TRIPOS>SUBSTRUCTURE
     1 768         1 TEMP              0 ****  ****    0 ROOT
