@<TRIPOS>MOLECULE
768
   59    62     1     0     0
SMALL
bcc


@<TRIPOS>ATOM
      1 O1          -1.1810     1.6600     0.7480 oh         1 768      -0.562800
      2 C16         -1.1500     0.5490    -0.1100 c3         1 768       0.119100
      3 C17         -2.4950     0.2570    -0.7500 c3         1 768       0.104400
      4 O2          -3.4160    -0.0290     0.2870 os         1 768      -0.286900
      5 C18         -4.6770    -0.3300    -0.0380 ca         1 768       0.154100
      6 C19         -5.1740    -0.3960    -1.3370 ca         1 768      -0.210000
      7 C20         -6.5020    -0.7210    -1.5750 ca         1 768      -0.080000
      8 C21         -7.3460    -0.9820    -0.5110 ca         1 768      -0.006600
      9 CL1         -9.0040    -1.3890    -0.8000 cl         1 768      -0.103400
     10 C22         -6.8790    -0.9230     0.7940 ca         1 768      -0.079000
     11 C23         -5.5550    -0.5990     1.0180 ca         1 768      -0.007600
     12 CL2         -4.9590    -0.5260     2.6360 cl         1 768      -0.076400
     13 C15         -0.0930     0.6930    -1.2050 c3         1 768       0.041300
     14 N3           1.2110     0.9680    -0.6670 na         1 768      -0.195300
     15 C14          2.0590    -0.0170    -0.2080 cc         1 768       0.604300
     16 N4           1.7740    -1.2620    -0.2430 n2         1 768      -0.902100
     17 C13          1.7830     2.2090    -0.4940 ca         1 768      -0.012200
     18 C12          1.3350     3.4820    -0.7840 ca         1 768      -0.135000
     19 C11          2.1900     4.5490    -0.5040 ca         1 768      -0.127000
     20 C10          3.4470     4.3390     0.0490 ca         1 768      -0.130000
     21 C9           3.8970     3.0510     0.3440 ca         1 768      -0.131000
     22 C8           3.0480     1.9980     0.0680 ca         1 768      -0.024200
     23 N2           3.1850     0.6370     0.2550 na         1 768      -0.245300
     24 C7           4.3650    -0.0350     0.7370 c3         1 768       0.058300
     25 C6           5.2850    -0.4490    -0.4100 c3         1 768       0.139800
     26 N1           6.4520    -1.1650     0.0590 n3         1 768      -0.721600
     27 C5           7.5250    -1.1290    -0.9230 c6         1 768       0.167300
     28 C4           8.7920    -1.7770    -0.3860 c6         1 768      -0.075400
     29 C3           8.5200    -3.2090     0.0570 c6         1 768      -0.075400
     30 C2           7.3510    -3.2340     1.0330 c6         1 768      -0.075400
     31 C1           6.1390    -2.5350     0.4360 c6         1 768       0.167300
     32 HO1         -1.4860     2.4320     0.2600 ho         1 768       0.395000
     33 H16         -0.8720    -0.3050     0.5140 h1         1 768       0.114700
     34 H17         -2.8360     1.1180    -1.3390 h1         1 768       0.040200
     35 H17A        -2.4020    -0.5970    -1.4290 h1         1 768       0.040200
     36 H19         -4.5350    -0.1990    -2.1860 ha         1 768       0.140000
     37 H20         -6.8650    -0.7680    -2.5920 ha         1 768       0.149000
     38 H22         -7.5360    -1.1250     1.6290 ha         1 768       0.163000
     39 H15         -0.0380    -0.2270    -1.7890 h1         1 768       0.064200
     40 H15A        -0.3530     1.4960    -1.8980 h1         1 768       0.064200
     41 HN4          2.5280    -1.8350     0.1140 hn         1 768       0.396400
     42 H12          0.3590     3.6600    -1.2170 ha         1 768       0.131000
     43 H11          1.8610     5.5570    -0.7200 ha         1 768       0.133000
     44 H10          4.0900     5.1840     0.2550 ha         1 768       0.134000
     45 H9           4.8800     2.8920     0.7690 ha         1 768       0.141000
     46 H7           4.8930     0.6340     1.4170 h1         1 768       0.065200
     47 H7A          4.0510    -0.8910     1.3370 h1         1 768       0.065200
     48 H6           4.7110    -1.0290    -1.1540 h1         1 768       0.041200
     49 H6A          5.6170     0.4600    -0.9190 h1         1 768       0.041200
     50 H5           7.2280    -1.6370    -1.8580 h1         1 768       0.030200
     51 H5A          7.7240    -0.0870    -1.1820 h1         1 768       0.030200
     52 H4           9.5650    -1.7480    -1.1570 hc         1 768       0.047450
     53 H4A          9.1620    -1.1910     0.4620 hc         1 768       0.047450
     54 H3           8.2720    -3.8190    -0.8190 hc         1 768       0.040700
     55 H3A          9.4110    -3.6520     0.5060 hc         1 768       0.040700
     56 H2           7.0820    -4.2600     1.2940 hc         1 768       0.047450
     57 H2A          7.6330    -2.7310     1.9630 hc         1 768       0.047450
     58 H1           5.3280    -2.5360     1.1670 h1         1 768       0.030200
     59 H1A          5.7780    -3.1110    -0.4360 h1         1 768       0.030200
@<TRIPOS>BOND
     1     1     2 1   
     2     1    32 1   
     3     2     3 1   
     4     2    13 1   
     5     2    33 1   
     6     3     4 1   
     7     3    34 1   
     8     3    35 1   
     9     4     5 1   
    10     5     6 ar  
    11     5    11 ar  
    12     6     7 ar  
    13     6    36 1   
    14     7     8 ar  
    15     7    37 1   
    16     8     9 1   
    17     8    10 ar  
    18    10    11 ar  
    19    10    38 1   
    20    11    12 1   
    21    13    14 1   
    22    13    39 1   
    23    13    40 1   
    24    14    15 1   
    25    14    17 1   
    26    15    16 2   
    27    15    23 1   
    28    16    41 1   
    29    17    18 ar  
    30    17    22 ar  
    31    18    19 ar  
    32    18    42 1   
    33    19    20 ar  
    34    19    43 1   
    35    20    21 ar  
    36    20    44 1   
    37    21    22 ar  
    38    21    45 1   
    39    22    23 1   
    40    23    24 1   
    41    24    25 1   
    42    24    46 1   
    43    24    47 1   
    44    25    26 1   
    45    25    48 1   
    46    25    49 1   
    47    26    27 1   
    48    26    31 1   
    49    27    28 1   
    50    27    50 1   
    51    27    51 1   
    52    28    29 1   
    53    28    52 1   
    54    28    53 1   
    55    29    30 1   
    56    29    54 1   
    57    29    55 1   
    58    30    31 1   
    59    30    56 1   
    60    30    57 1   
    61    31    58 1   
    62    31    59 1   
@<TRIPOS>SUBSTRUCTURE
     1 768         1 TEMP              0 ****  ****    0 ROOT
