@<TRIPOS>MOLECULE
769
   54    57     1     0     0
SMALL
No Charge or Current Charge


@<TRIPOS>ATOM
      1 C4          -6.4680     1.2710     0.3360 ca         1 769      -0.078000
      2 C5          -5.1260     1.0970    -0.0910 cp         1 769      -0.043000
      3 C6          -4.3360     2.2580    -0.2920 ca         1 769      -0.078000
      4 C7          -4.5620    -0.2710    -0.3220 cp         1 769      -0.051000
      5 C8          -5.3550    -1.2960    -0.8860 ca         1 769      -0.141000
      6 C10         -3.2200    -0.5730     0.0200 ca         1 769      -0.066000
      7 C13         -3.4860    -2.8630    -0.7590 ca         1 769       0.206100
      8 C20          1.4560     0.0380     1.7340 c3         1 769      -0.064200
      9 C21          2.9030    -0.0860     2.1640 c2         1 769      -0.197200
     10 C22          3.9340     0.5650     1.6030 c2         1 769      -0.242200
     11 C26          7.4200    -1.4940    -0.4050 cc         1 769      -0.218200
     12 C28          7.5050    -0.1540    -0.9140 ca         1 769      -0.158800
     13 C1          -4.8670     3.5430    -0.0750 ca         1 769      -0.150000
     14 C2          -6.1960     3.6860     0.3480 ca         1 769       0.173000
     15 C3          -6.9980     2.5550     0.5540 ca         1 769      -0.150000
     16 C9          -2.6630    -1.8600    -0.1900 ca         1 769      -0.250600
     17 C11         -1.2280    -2.1680     0.1840 c          1 769       0.626700
     18 O12         -0.7420    -3.2780     0.0080 o          1 769      -0.649100
     19 C14         -4.8310    -2.5790    -1.1060 ca         1 769       0.086100
     20 O15         -5.6370    -3.5420    -1.6620 oh         1 769      -0.507100
     21 O16         -2.9780    -4.1150    -0.9740 oh         1 769      -0.528100
     22 F17         -6.7060     4.9200     0.5570 f          1 769      -0.177000
     23 N18         -0.4870    -1.1480     0.7310 ns         1 769      -0.479900
     24 C19          0.9110    -1.2760     1.1450 c3         1 769       0.103000
     25 C23          5.3850     0.4430     2.0250 c3         1 769       0.112800
     26 N24          6.2310    -0.1040     0.9520 na         1 769      -0.086700
     27 C25          6.6300    -1.4440     0.7400 cd         1 769      -0.162100
     28 C27          6.7820     0.6450    -0.0780 ca         1 769      -0.022200
     29 C29          8.1610     0.3780    -2.0370 ca         1 769       0.391900
     30 N30          8.0930     1.7060    -2.3230 nb         1 769      -0.691000
     31 C31          7.3690     2.5010    -1.4870 ca         1 769       0.340900
     32 C32          6.6910     2.0180    -0.3460 ca         1 769      -0.180000
     33 H1          -7.0990     0.4030     0.5130 ha         1 769       0.117000
     34 H2          -3.3080     2.1650    -0.6330 ha         1 769       0.117000
     35 H3          -6.3830    -1.0820    -1.1680 ha         1 769       0.119000
     36 H4          -2.6250     0.2170     0.4690 ha         1 769       0.108000
     37 H5           0.8390     0.3310     2.5930 hc         1 769       0.054700
     38 H6           1.3480     0.8330     0.9850 hc         1 769       0.054700
     39 H7           3.0690    -0.7690     3.0020 ha         1 769       0.173000
     40 H8           3.7730     1.2470     0.7660 ha         1 769       0.186000
     41 H10         -4.2520     4.4240    -0.2360 ha         1 769       0.133500
     42 H11         -8.0270     2.6740     0.8840 ha         1 769       0.133500
     43 H12         -6.5230    -3.1550    -1.8320 ho         1 769       0.461000
     44 H13         -2.0360    -4.0760    -0.6560 ho         1 769       0.522000
     45 H14         -0.9480    -0.2570     0.8490 hn         1 769       0.320500
     46 H15          1.5140    -1.5640     0.2730 h1         1 769       0.061700
     47 H16          0.9880    -2.0750     1.8940 h1         1 769       0.061700
     48 H17          5.7730     1.4270     2.3170 h1         1 769       0.065200
     49 H18          5.4680    -0.2140     2.9000 h1         1 769       0.065200
     50 H19          6.3250    -2.2460     1.4070 h4         1 769       0.215000
     51 H20          8.7410    -0.2520    -2.7120 h4         1 769       0.019100
     52 H21          7.3310     3.5590    -1.7410 h4         1 769       0.015100
     53 H22          6.1260     2.6930     0.2890 ha         1 769       0.120000
     54 H9           7.8750    -2.3910    -0.8240 ha         1 769       0.210000
@<TRIPOS>BOND
     1     1     2 ar  
     2     1    15 ar  
     3     1    33 1   
     4     2     3 ar  
     5     2     4 1   
     6     3    13 ar  
     7     3    34 1   
     8     4     5 ar  
     9     4     6 ar  
    10     5    19 ar  
    11     5    35 1   
    12     6    16 ar  
    13     6    36 1   
    14     7    16 ar  
    15     7    19 ar  
    16     7    21 1   
    17     8     9 1   
    18     8    24 1   
    19     8    37 1   
    20     8    38 1   
    21     9    10 2   
    22     9    39 1   
    23    10    25 1   
    24    10    40 1   
    25    11    12 1   
    26    11    27 2   
    27    11    54 1   
    28    12    28 ar  
    29    12    29 ar  
    30    13    14 ar  
    31    13    41 1   
    32    14    15 ar  
    33    14    22 1   
    34    15    42 1   
    35    16    17 1   
    36    17    18 2   
    37    17    23 1   
    38    19    20 1   
    39    20    43 1   
    40    21    44 1   
    41    23    24 1   
    42    23    45 1   
    43    24    46 1   
    44    24    47 1   
    45    25    26 1   
    46    25    48 1   
    47    25    49 1   
    48    26    27 1   
    49    26    28 1   
    50    27    50 1   
    51    28    32 ar  
    52    29    30 ar  
    53    29    51 1   
    54    30    31 ar  
    55    31    32 ar  
    56    31    52 1   
    57    32    53 1   
@<TRIPOS>SUBSTRUCTURE
     1 769         1 TEMP              0 ****  ****    0 ROOT
