@<TRIPOS>MOLECULE
769
   54    57     1     0     0
SMALL
bcc


@<TRIPOS>ATOM
      1 C4          -6.5300     1.2420     0.3340 ca         1 769      -0.096000
      2 C5          -5.2210     1.0610    -0.1160 cp         1 769      -0.043000
      3 C6          -4.4790     2.1930    -0.4570 ca         1 769      -0.096000
      4 C7          -4.6350    -0.2890    -0.2260 cp         1 769      -0.051000
      5 C8          -5.4080    -1.3650    -0.6830 ca         1 769      -0.159000
      6 C10         -3.3180    -0.5240     0.1230 ca         1 769      -0.084000
      7 C13         -3.5450    -2.8760    -0.4090 ca         1 769       0.206100
      8 C20          1.4570     0.0570     1.5070 c3         1 769      -0.064200
      9 C21          2.8790    -0.1340     1.9270 c2         1 769      -0.147200
     10 C22          3.9140     0.5180     1.4110 c2         1 769      -0.192200
     11 C26          7.0370    -1.3720    -0.8880 cc         1 769      -0.168200
     12 C28          7.5590    -0.0490    -1.0180 ca         1 769      -0.224100
     13 C1          -5.0160     3.4660    -0.3500 ca         1 769      -0.168000
     14 C2          -6.3150     3.6000     0.0990 ca         1 769       0.137900
     15 C3          -7.0860     2.5070     0.4440 ca         1 769      -0.168000
     16 C9          -2.7550    -1.8030     0.0240 ca         1 769      -0.250600
     17 C11         -1.3400    -2.0880     0.3770 c          1 769       0.693700
     18 O12         -0.9290    -3.2590     0.4220 o          1 769      -0.649100
     19 C14         -4.8830    -2.6350    -0.7750 ca         1 769       0.086100
     20 O15         -5.5780    -3.7030    -1.2120 oh         1 769      -0.468100
     21 O16         -3.1020    -4.1280    -0.5050 oh         1 769      -0.489100
     22 F17         -6.8450     4.8300     0.2010 f          1 769      -0.141900
     23 N18         -0.5250    -1.0670     0.6340 ns         1 769      -0.546900
     24 C19          0.8740    -1.2470     0.9710 c3         1 769       0.103000
     25 C23          5.3290     0.3030     1.8530 c3         1 769       0.083500
     26 N24          6.1820    -0.0930     0.7490 na         1 769      -0.057400
     27 C25          6.2030    -1.3470     0.1880 cd         1 769      -0.112100
     28 C27          6.9920     0.7200     0.0220 ca         1 769      -0.022200
     29 C29          8.4410     0.5900    -1.8900 ca         1 769       0.457200
     30 N30          8.7500     1.8680    -1.7750 nb         1 769      -0.691000
     31 C31          8.1940     2.5780    -0.7790 ca         1 769       0.406200
     32 C32          7.3090     2.0710     0.1500 ca         1 769      -0.263300
     33 H1          -7.1260     0.3860     0.6260 ha         1 769       0.135000
     34 H2          -3.4690     2.0850    -0.8320 ha         1 769       0.135000
     35 H3          -6.4360    -1.1980    -0.9870 ha         1 769       0.137000
     36 H4          -2.7400     0.3010     0.5170 ha         1 769       0.126000
     37 H5           0.8620     0.3810     2.3670 hc         1 769       0.054700
     38 H6           1.3880     0.8410     0.7490 hc         1 769       0.054700
     39 H7           3.0520    -0.8690     2.7090 ha         1 769       0.123000
     40 H8           3.7600     1.2540     0.6270 ha         1 769       0.136000
     41 H10         -4.4360     4.3380    -0.6220 ha         1 769       0.151500
     42 H11         -8.0990     2.6390     0.8000 ha         1 769       0.151500
     43 H12         -6.4720    -3.4390    -1.4590 ho         1 769       0.422000
     44 H13         -2.1690    -4.1090    -0.1670 ho         1 769       0.483000
     45 H14         -0.8400    -0.1250     0.4780 hn         1 769       0.320500
     46 H15          1.4390    -1.5740     0.0930 h1         1 769       0.061700
     47 H16          0.9650    -2.0290     1.7260 h1         1 769       0.061700
     48 H17          5.7450     1.2160     2.2830 h1         1 769       0.065200
     49 H18          5.3790    -0.4620     2.6290 h1         1 769       0.065200
     50 H19          5.6100    -2.1400     0.6180 h4         1 769       0.165000
     51 H20          8.9040     0.0410    -2.7050 h4         1 769       0.019100
     52 H21          8.4760     3.6240    -0.7280 h4         1 769       0.015100
     53 H22          6.8970     2.7050     0.9240 ha         1 769       0.138000
     54 H9           7.2520    -2.2260    -1.5090 ha         1 769       0.160000
@<TRIPOS>BOND
     1     1     2 ar  
     2     1    15 ar  
     3     1    33 1   
     4     2     3 ar  
     5     2     4 1   
     6     3    13 ar  
     7     3    34 1   
     8     4     5 ar  
     9     4     6 ar  
    10     5    19 ar  
    11     5    35 1   
    12     6    16 ar  
    13     6    36 1   
    14     7    16 ar  
    15     7    19 ar  
    16     7    21 1   
    17     8     9 1   
    18     8    24 1   
    19     8    37 1   
    20     8    38 1   
    21     9    10 2   
    22     9    39 1   
    23    10    25 1   
    24    10    40 1   
    25    11    12 1   
    26    11    27 2   
    27    11    54 1   
    28    12    28 ar  
    29    12    29 ar  
    30    13    14 ar  
    31    13    41 1   
    32    14    15 ar  
    33    14    22 1   
    34    15    42 1   
    35    16    17 1   
    36    17    18 2   
    37    17    23 1   
    38    19    20 1   
    39    20    43 1   
    40    21    44 1   
    41    23    24 1   
    42    23    45 1   
    43    24    46 1   
    44    24    47 1   
    45    25    26 1   
    46    25    48 1   
    47    25    49 1   
    48    26    27 1   
    49    26    28 1   
    50    27    50 1   
    51    28    32 ar  
    52    29    30 ar  
    53    29    51 1   
    54    30    31 ar  
    55    31    32 ar  
    56    31    52 1   
    57    32    53 1   
@<TRIPOS>SUBSTRUCTURE
     1 769         1 TEMP              0 ****  ****    0 ROOT
