@<TRIPOS>MOLECULE
76A
   62    67     1     0     0
SMALL
bcc


@<TRIPOS>ATOM
      1 O1          15.4820    -0.9060     3.7860 oh         1 76A      -0.493100
      2 C2          11.5450    -1.7170     4.8520 cp         1 76A      -0.073000
      3 C3          12.5870    -2.6020     5.1380 ca         1 76A      -0.077000
      4 C4          13.8940    -2.3250     4.7780 ca         1 76A      -0.195500
      5 C5          14.1960    -1.1370     4.1140 ca         1 76A       0.142100
      6 C6          13.1710    -0.2430     3.8180 ca         1 76A      -0.195500
      7 C7          11.8670    -0.5350     4.1840 ca         1 76A      -0.077000
      8 C8           7.4960    -2.5900     6.0080 ca         1 76A      -0.115500
      9 C9           8.5720    -2.9740     6.8100 ca         1 76A      -0.107000
     10 C10          9.8730    -2.6930     6.4350 ca         1 76A      -0.126500
     11 C11         10.1560    -2.0200     5.2440 cp         1 76A      -0.018000
     12 C12          9.0790    -1.6430     4.4420 ca         1 76A      -0.126500
     13 C13          7.7740    -1.9200     4.8160 ca         1 76A      -0.107000
     14 C14          6.1160    -2.8700     6.4010 cc         1 76A       0.403800
     15 N15          5.8470    -3.5230     7.5320 nd         1 76A      -0.514800
     16 N16          4.5230    -3.6110     7.6170 na         1 76A       0.031400
     17 C17          3.9260    -3.0310     6.5680 cd         1 76A      -0.073300
     18 C18          4.9130    -2.5370     5.7510 cc         1 76A      -0.259600
     19 C19          2.6110    -2.7560     6.0350 ca         1 76A       0.000000
     20 C20          2.8280    -2.0600     4.8310 ca         1 76A      -0.088300
     21 C21          4.3060    -1.8740     4.5550 c5         1 76A       0.050200
     22 C22          1.3270    -3.0400     6.4730 ca         1 76A      -0.116000
     23 C23          0.2560    -2.6210     5.6990 ca         1 76A      -0.074000
     24 C24          0.4540    -1.9160     4.5110 ca         1 76A      -0.145600
     25 C25          1.7540    -1.6430     4.0730 ca         1 76A      -0.094000
     26 C26         -0.7590    -1.4990     3.7400 c          1 76A       0.679700
     27 N27         -0.6000    -0.4640     2.8990 ns         1 76A      -0.565900
     28 O28         -1.8260    -2.0830     3.8850 o          1 76A      -0.600100
     29 C29         -1.6810     0.1170     2.1250 c6         1 76A       0.104700
     30 C30         -1.1610     0.5950     0.7730 c6         1 76A      -0.088400
     31 C31         -2.2820     1.2290    -0.0450 c6         1 76A      -0.090900
     32 C32         -2.9360     2.3810     0.7120 c6         1 76A       0.146100
     33 C33         -3.4640     1.8990     2.0530 c6         1 76A      -0.090900
     34 C34         -2.3530     1.2630     2.8810 c6         1 76A      -0.088400
     35 O35         -4.0140     2.9480    -0.0050 oh         1 76A      -0.594800
     36 H35         -3.6790     3.2710    -0.8480 ho         1 76A       0.403000
     37 H32         -2.1610     3.1410     0.9030 h1         1 76A       0.025700
     38 H331        -4.2590     1.1650     1.8810 hc         1 76A       0.054200
     39 H332        -3.9090     2.7300     2.6040 hc         1 76A       0.054200
     40 H341        -1.5960     2.0160     3.1260 hc         1 76A       0.046700
     41 H342        -2.7540     0.8960     3.8290 hc         1 76A       0.046700
     42 H29         -2.4180    -0.6700     1.9560 h1         1 76A       0.085700
     43 H301        -0.7200    -0.2400     0.2260 hc         1 76A       0.046700
     44 H302        -0.3630     1.3300     0.9310 hc         1 76A       0.046700
     45 H311        -1.8850     1.5830    -1.0010 hc         1 76A       0.054200
     46 H312        -3.0450     0.4760    -0.2730 hc         1 76A       0.054200
     47 H27          0.2520     0.0730     2.9470 hn         1 76A       0.308500
     48 H23         -0.7510    -2.8360     6.0270 ha         1 76A       0.157000
     49 H22          1.1540    -3.5760     7.3970 ha         1 76A       0.139000
     50 H25          1.9360    -1.1280     3.1370 ha         1 76A       0.134000
     51 H211         4.5960    -2.3430     3.6110 hc         1 76A       0.071700
     52 H212         4.5640    -0.8140     4.4700 hc         1 76A       0.071700
     53 H16          4.1060    -4.0700     8.4100 hn         1 76A       0.328700
     54 H13          6.9700    -1.6150     4.1600 ha         1 76A       0.138000
     55 H12          9.2550    -1.1400     3.4990 ha         1 76A       0.131500
     56 H9           8.3880    -3.4900     7.7430 ha         1 76A       0.138000
     57 H7          11.0930     0.1880     3.9600 ha         1 76A       0.134000
     58 H6          13.3890     0.6890     3.3090 ha         1 76A       0.139000
     59 HO1         15.5640    -0.0640     3.3240 ho         1 76A       0.426000
     60 H4          14.6830    -3.0310     5.0030 ha         1 76A       0.139000
     61 H3          12.3770    -3.5400     5.6360 ha         1 76A       0.134000
     62 H10         10.6810    -2.9860     7.0950 ha         1 76A       0.131500
@<TRIPOS>BOND
     1     1     5 1   
     2     1    59 1   
     3     2     3 ar  
     4     2     7 ar  
     5     2    11 1   
     6     3     4 ar  
     7     3    61 1   
     8     4     5 ar  
     9     4    60 1   
    10     5     6 ar  
    11     6     7 ar  
    12     6    58 1   
    13     7    57 1   
    14     8     9 ar  
    15     8    13 ar  
    16     8    14 1   
    17     9    10 ar  
    18     9    56 1   
    19    10    11 ar  
    20    10    62 1   
    21    11    12 ar  
    22    12    13 ar  
    23    12    55 1   
    24    13    54 1   
    25    14    15 2   
    26    14    18 1   
    27    15    16 1   
    28    16    17 1   
    29    16    53 1   
    30    17    18 2   
    31    17    19 1   
    32    18    21 1   
    33    19    20 ar  
    34    19    22 ar  
    35    20    21 1   
    36    20    25 ar  
    37    21    51 1   
    38    21    52 1   
    39    22    23 ar  
    40    22    49 1   
    41    23    24 ar  
    42    23    48 1   
    43    24    25 ar  
    44    24    26 1   
    45    25    50 1   
    46    26    27 1   
    47    26    28 2   
    48    27    29 1   
    49    27    47 1   
    50    29    30 1   
    51    29    34 1   
    52    29    42 1   
    53    30    31 1   
    54    30    43 1   
    55    30    44 1   
    56    31    32 1   
    57    31    45 1   
    58    31    46 1   
    59    32    33 1   
    60    32    35 1   
    61    32    37 1   
    62    33    34 1   
    63    33    38 1   
    64    33    39 1   
    65    34    40 1   
    66    34    41 1   
    67    35    36 1   
@<TRIPOS>SUBSTRUCTURE
     1 76A         1 TEMP              0 ****  ****    0 ROOT
