@<TRIPOS>MOLECULE
76A
   62    67     1     0     0
SMALL
No Charge or Current Charge


@<TRIPOS>ATOM
      1 O1          15.2880    -0.5800     3.4800 oh         1 76A      -0.532100
      2 C2          11.4110    -1.6070     4.7390 cp         1 76A      -0.073000
      3 C3          12.4880    -2.5250     4.8480 ca         1 76A      -0.059000
      4 C4          13.7820    -2.1770     4.4250 ca         1 76A      -0.177500
      5 C5          14.0300    -0.9080     3.8870 ca         1 76A       0.142100
      6 C6          12.9830     0.0180     3.7690 ca         1 76A      -0.177500
      7 C7          11.6860    -0.3280     4.1900 ca         1 76A      -0.059000
      8 C8           7.3800    -2.6830     6.0480 ca         1 76A      -0.115500
      9 C9           8.5260    -3.1600     6.7280 ca         1 76A      -0.089000
     10 C10          9.8210    -2.8150     6.3070 ca         1 76A      -0.108500
     11 C11         10.0310    -1.9760     5.1880 cp         1 76A      -0.018000
     12 C12          8.8850    -1.5000     4.5110 ca         1 76A      -0.108500
     13 C13          7.5880    -1.8440     4.9290 ca         1 76A      -0.089000
     14 C14          6.0300    -3.0700     6.5230 cc         1 76A       0.338500
     15 N15          5.8530    -3.8690     7.5860 nd         1 76A      -0.514800
     16 N16          4.4510    -3.9990     7.7170 na         1 76A       0.031800
     17 C17          3.8200    -3.2710     6.7220 cd         1 76A      -0.124000
     18 C18          4.7670    -2.7090     6.0000 cc         1 76A      -0.194300
     19 C19          2.5290    -2.9260     6.2250 ca         1 76A       0.000000
     20 C20          2.7750    -2.0960     5.1260 ca         1 76A      -0.088300
     21 C21          4.2910    -1.8490     4.8390 c5         1 76A       0.050200
     22 C22          1.2460    -3.2710     6.6500 ca         1 76A      -0.098000
     23 C23          0.1570    -2.7500     5.9250 ca         1 76A      -0.056000
     24 C24          0.3600    -1.9020     4.7990 ca         1 76A      -0.145600
     25 C25          1.6890    -1.5770     4.4030 ca         1 76A      -0.076000
     26 C26         -0.8490    -1.3690     4.0550 c          1 76A       0.612700
     27 N27         -0.5990    -0.5550     2.9720 ns         1 76A      -0.498900
     28 O28         -1.9930    -1.6440     4.3900 o          1 76A      -0.600100
     29 C29         -1.6160     0.0840     2.1290 c6         1 76A       0.104700
     30 C30         -1.0230     0.4040     0.7320 c6         1 76A      -0.088400
     31 C31         -2.0590     1.1170    -0.1750 c6         1 76A      -0.090900
     32 C32         -2.5880     2.4140     0.4890 c6         1 76A       0.169300
     33 C33         -3.1690     2.1100     1.8920 c6         1 76A      -0.090900
     34 C34         -2.1300     1.3910     2.7900 c6         1 76A      -0.088400
     35 O35         -3.5920     3.0110    -0.3330 oh         1 76A      -0.657000
     36 H35         -3.1540     3.2600    -1.1760 ho         1 76A       0.442000
     37 H32         -1.7450     3.1120     0.6090 h1         1 76A       0.025700
     38 H331        -4.0680     1.4840     1.7960 hc         1 76A       0.054200
     39 H332        -3.4900     3.0440     2.3730 hc         1 76A       0.054200
     40 H341        -1.2860     2.0660     2.9890 hc         1 76A       0.046700
     41 H342        -2.5830     1.1640     3.7640 hc         1 76A       0.046700
     42 H29         -2.4600    -0.6130     2.0040 h1         1 76A       0.085700
     43 H301        -0.6890    -0.5240     0.2490 hc         1 76A       0.046700
     44 H302        -0.1310     1.0380     0.8390 hc         1 76A       0.046700
     45 H311        -1.5980     1.3530    -1.1440 hc         1 76A       0.054200
     46 H312        -2.8950     0.4350    -0.3830 hc         1 76A       0.054200
     47 H27          0.3720    -0.3780     2.7570 hn         1 76A       0.308500
     48 H23         -0.8520    -3.0080     6.2410 ha         1 76A       0.139000
     49 H22          1.0930    -3.9180     7.5100 ha         1 76A       0.121000
     50 H25          1.8930    -0.9340     3.5520 ha         1 76A       0.116000
     51 H211         4.6070    -2.2320     3.8620 hc         1 76A       0.071700
     52 H212         4.5770    -0.7950     4.9380 hc         1 76A       0.071700
     53 H16          4.0130    -4.5560     8.4500 hn         1 76A       0.379000
     54 H13          6.7580    -1.4460     4.3600 ha         1 76A       0.120000
     55 H12          8.9990    -0.8640     3.6360 ha         1 76A       0.113500
     56 H9           8.4240    -3.8060     7.5970 ha         1 76A       0.120000
     57 H7          10.8910     0.4080     4.1030 ha         1 76A       0.116000
     58 H6          13.1640     1.0080     3.3550 ha         1 76A       0.121000
     59 HO1         15.2730     0.3380     3.1340 ho         1 76A       0.465000
     60 H4          14.5930    -2.8960     4.5140 ha         1 76A       0.121000
     61 H3          12.3150    -3.5210     5.2500 ha         1 76A       0.116000
     62 H10         10.6720    -3.1940     6.8670 ha         1 76A       0.113500
@<TRIPOS>BOND
     1     1     5 1   
     2     1    59 1   
     3     2     3 ar  
     4     2     7 ar  
     5     2    11 1   
     6     3     4 ar  
     7     3    61 1   
     8     4     5 ar  
     9     4    60 1   
    10     5     6 ar  
    11     6     7 ar  
    12     6    58 1   
    13     7    57 1   
    14     8     9 ar  
    15     8    13 ar  
    16     8    14 1   
    17     9    10 ar  
    18     9    56 1   
    19    10    11 ar  
    20    10    62 1   
    21    11    12 ar  
    22    12    13 ar  
    23    12    55 1   
    24    13    54 1   
    25    14    15 2   
    26    14    18 1   
    27    15    16 1   
    28    16    17 1   
    29    16    53 1   
    30    17    18 2   
    31    17    19 1   
    32    18    21 1   
    33    19    20 ar  
    34    19    22 ar  
    35    20    21 1   
    36    20    25 ar  
    37    21    51 1   
    38    21    52 1   
    39    22    23 ar  
    40    22    49 1   
    41    23    24 ar  
    42    23    48 1   
    43    24    25 ar  
    44    24    26 1   
    45    25    50 1   
    46    26    27 1   
    47    26    28 2   
    48    27    29 1   
    49    27    47 1   
    50    29    30 1   
    51    29    34 1   
    52    29    42 1   
    53    30    31 1   
    54    30    43 1   
    55    30    44 1   
    56    31    32 1   
    57    31    45 1   
    58    31    46 1   
    59    32    33 1   
    60    32    35 1   
    61    32    37 1   
    62    33    34 1   
    63    33    38 1   
    64    33    39 1   
    65    34    40 1   
    66    34    41 1   
    67    35    36 1   
@<TRIPOS>SUBSTRUCTURE
     1 76A         1 TEMP              0 ****  ****    0 ROOT
