@<TRIPOS>MOLECULE
76B
   52    55     1     0     0
SMALL
abcg2


@<TRIPOS>ATOM
      1 N3          -5.0090    -2.0150     0.3310 nc         1 76B      -0.519800
      2 C6           2.9180     2.4150     0.8230 ca         1 76B       0.141100
      3 C7           3.3190     0.1990    -0.0490 ca         1 76B      -0.072000
      4 C8          -3.0860    -0.9780     0.5690 cc         1 76B       0.422800
      5 C10          4.6840     0.3570     0.1070 cp         1 76B      -0.047000
      6 C13         -6.4290    -0.0550     0.0210 ca         1 76B      -0.080500
      7 C15         -1.6240    -0.7900     0.7560 c3         1 76B      -0.130700
      8 C17         -7.5990    -0.7930    -0.1270 ca         1 76B      -0.137000
      9 C20          5.2940    -2.0620    -0.0580 ca         1 76B      -0.076500
     10 C21          6.8600    -0.4280    -0.8390 ca         1 76B      -0.076500
     11 C22         -8.8060    -0.1350    -0.3330 ca         1 76B       0.345300
     12 C26          7.3810    -2.7460    -0.9750 ca         1 76B       0.174000
     13 C28          7.7460    -1.4320    -1.1950 ca         1 76B      -0.150500
     14 C1           2.4220     1.2130     0.3060 ca         1 76B      -0.235600
     15 C2          -5.1400    -0.7090     0.2420 cd         1 76B       0.584500
     16 N4          -3.9790    -0.0310     0.3820 nd         1 76B      -0.685000
     17 N5          -3.7040    -2.1630     0.5340 na         1 76B      -0.187700
     18 C9           0.9500     1.0910     0.1540 c          1 76B       0.626700
     19 C11          4.3060     2.5830     0.9780 ca         1 76B       0.098100
     20 C12          5.1660     1.5650     0.6260 ca         1 76B      -0.087000
     21 C14          5.6210    -0.7210    -0.2660 cp         1 76B      -0.045000
     22 N16         -8.8830     1.1950    -0.3950 nb         1 76B      -0.668000
     23 O18          0.2080     2.0260     0.4970 o          1 76B      -0.642100
     24 N19          0.4450    -0.0300    -0.3620 ns         1 76B      -0.480900
     25 O24          4.8070     3.7270     1.4790 oh         1 76B      -0.531100
     26 C25         -0.9730    -0.2520    -0.5240 c3         1 76B       0.104000
     27 C27         -7.7660     1.8960    -0.2550 ca         1 76B       0.332900
     28 C29          6.1650    -3.0810    -0.4130 ca         1 76B      -0.150500
     29 F30          8.2340    -3.7250    -1.3180 f          1 76B      -0.177000
     30 C31         -6.5190     1.3300    -0.0460 ca         1 76B      -0.134000
     31 C32        -10.0870    -0.8970    -0.4840 c3         1 76B      -0.142400
     32 H2           2.9590    -0.7270    -0.4770 ha         1 76B       0.105000
     33 H3          -1.4640    -0.0850     1.5730 hc         1 76B       0.071200
     34 H4          -1.1600    -1.7350     1.0400 hc         1 76B       0.071200
     35 H5          -7.5770    -1.8740    -0.0860 ha         1 76B       0.134000
     36 H6           4.3530    -2.3260     0.4060 ha         1 76B       0.118000
     37 H7           7.1390     0.6000    -1.0290 ha         1 76B       0.118000
     38 H8           8.7010    -1.1930    -1.6450 ha         1 76B       0.133500
     39 H9           6.2290     1.7120     0.7760 ha         1 76B       0.136000
     40 H10          1.0530    -0.7970    -0.5930 hn         1 76B       0.321500
     41 H11          1.2120     3.1620     1.0190 ho         1 76B       0.536000
     42 H12          4.0920     4.3380     1.6980 ho         1 76B       0.489000
     43 H13         -1.1010    -0.9670    -1.3360 h1         1 76B       0.072700
     44 H14         -1.4550     0.6770    -0.8250 h1         1 76B       0.072700
     45 H15         -7.8640     2.9750    -0.3110 h4         1 76B       0.020100
     46 H16          5.9030    -4.1170    -0.2420 ha         1 76B       0.133500
     47 H17         -5.6460     1.9580     0.0600 ha         1 76B       0.144000
     48 H18        -10.7380    -0.7300     0.3760 hc         1 76B       0.050033
     49 H19        -10.6310    -0.5670    -1.3680 hc         1 76B       0.050033
     50 H20         -9.9120    -1.9680    -0.5670 hc         1 76B       0.050033
     51 H1          -3.3030    -3.0830     0.6450 hn         1 76B       0.378000
     52 O23          2.1510     3.4430     1.1910 oh         1 76B      -0.576100
@<TRIPOS>BOND
     1     1    15 2   
     2     1    17 1   
     3     2    14 ar  
     4     2    19 ar  
     5     2    52 1   
     6     3     5 ar  
     7     3    14 ar  
     8     3    32 1   
     9     4     7 1   
    10     4    16 2   
    11     4    17 1   
    12     5    20 ar  
    13     5    21 1   
    14     6     8 ar  
    15     6    15 1   
    16     6    30 ar  
    17     7    26 1   
    18     7    33 1   
    19     7    34 1   
    20     8    11 ar  
    21     8    35 1   
    22     9    21 ar  
    23     9    28 ar  
    24     9    36 1   
    25    10    13 ar  
    26    10    21 ar  
    27    10    37 1   
    28    11    22 ar  
    29    11    31 1   
    30    12    13 ar  
    31    12    28 ar  
    32    12    29 1   
    33    13    38 1   
    34    14    18 1   
    35    15    16 1   
    36    17    51 1   
    37    18    23 2   
    38    18    24 1   
    39    19    20 ar  
    40    19    25 1   
    41    20    39 1   
    42    22    27 ar  
    43    24    26 1   
    44    24    40 1   
    45    25    42 1   
    46    26    43 1   
    47    26    44 1   
    48    27    30 ar  
    49    27    45 1   
    50    28    46 1   
    51    30    47 1   
    52    31    48 1   
    53    31    49 1   
    54    31    50 1   
    55    41    52 1   
@<TRIPOS>SUBSTRUCTURE
     1 76B         1 TEMP              0 ****  ****    0 ROOT
