@<TRIPOS>MOLECULE
76B
   52    55     1     0     0
SMALL
No Charge or Current Charge


@<TRIPOS>ATOM
      1 N3          -4.9820    -2.0120     0.2580 nc         1 76B      -0.519800
      2 C6           3.1260     2.5460     0.8900 ca         1 76B       0.141100
      3 C7           3.3680     0.3040    -0.0150 ca         1 76B      -0.072000
      4 C8          -3.0930    -0.8180     0.5450 cc         1 76B       0.422800
      5 C10          4.7770     0.3670     0.1340 cp         1 76B      -0.047000
      6 C13         -6.5380    -0.1090     0.0170 ca         1 76B      -0.080500
      7 C15         -1.6410    -0.5050     0.7560 c3         1 76B      -0.130700
      8 C17         -7.6880    -0.9130    -0.1550 ca         1 76B      -0.137000
      9 C20          5.2290    -2.1250    -0.0590 ca         1 76B      -0.076500
     10 C21          6.9190    -0.5690    -0.8570 ca         1 76B      -0.076500
     11 C22         -8.9430    -0.3080    -0.3500 ca         1 76B       0.345300
     12 C26          7.2990    -2.9640    -1.0180 ca         1 76B       0.174000
     13 C28          7.7370    -1.6500    -1.2310 ca         1 76B      -0.150500
     14 C1           2.5230     1.3820     0.3560 ca         1 76B      -0.235600
     15 C2          -5.1960    -0.7010     0.2240 cd         1 76B       0.584500
     16 N4          -4.0570     0.0650     0.3950 nd         1 76B      -0.685000
     17 N5          -3.6340    -2.0720     0.4640 na         1 76B      -0.187700
     18 C9           1.0190     1.3070     0.1910 c          1 76B       0.626700
     19 C11          4.5250     2.6250     1.0430 ca         1 76B       0.098100
     20 C12          5.3400     1.5490     0.6690 ca         1 76B      -0.087000
     21 C14          5.6480    -0.7850    -0.2640 cp         1 76B      -0.045000
     22 N16         -9.1130     1.0330    -0.3760 nb         1 76B      -0.668000
     23 O18          0.2910     2.2380     0.5150 o          1 76B      -0.642100
     24 N19          0.5020     0.1480    -0.3410 ns         1 76B      -0.480900
     25 O24          5.0850     3.7590     1.5640 oh         1 76B      -0.531100
     26 C25         -0.9260    -0.1130    -0.5500 c3         1 76B       0.104000
     27 C27         -8.0200     1.8110    -0.2120 ca         1 76B       0.332900
     28 C29          6.0480    -3.2060    -0.4330 ca         1 76B      -0.150500
     29 F30          8.0850    -4.0020    -1.3770 f          1 76B      -0.177000
     30 C31         -6.7310     1.2890    -0.0160 ca         1 76B      -0.134000
     31 C32        -10.1950    -1.1450    -0.5320 c3         1 76B      -0.142400
     32 H2           2.9450    -0.6010    -0.4420 ha         1 76B       0.105000
     33 H3          -1.5500     0.3130     1.4800 hc         1 76B       0.071200
     34 H4          -1.1370    -1.3730     1.1980 hc         1 76B       0.071200
     35 H5          -7.6160    -1.9970    -0.1390 ha         1 76B       0.134000
     36 H6           4.2680    -2.3300     0.4060 ha         1 76B       0.118000
     37 H7           7.2680     0.4440    -1.0410 ha         1 76B       0.118000
     38 H8           8.7070    -1.4700    -1.6870 ha         1 76B       0.133500
     39 H9           6.4140     1.6280     0.8090 ha         1 76B       0.136000
     40 H10          1.1650    -0.5730    -0.5930 hn         1 76B       0.321500
     41 H11          1.4160     3.3460     1.0720 ho         1 76B       0.536000
     42 H12          4.3370     4.3710     1.7530 ho         1 76B       0.489000
     43 H13         -1.0300    -0.9250    -1.2830 h1         1 76B       0.072700
     44 H14         -1.3980     0.7830    -0.9760 h1         1 76B       0.072700
     45 H15         -8.1830     2.8880    -0.2390 h4         1 76B       0.020100
     46 H16          5.7160    -4.2270    -0.2670 ha         1 76B       0.133500
     47 H17         -5.8970     1.9750     0.1090 ha         1 76B       0.144000
     48 H18        -10.6970    -1.3060     0.4290 hc         1 76B       0.050033
     49 H19        -10.9080    -0.6600    -1.2090 hc         1 76B       0.050033
     50 H20         -9.9570    -2.1280    -0.9550 hc         1 76B       0.050033
     51 H1          -3.1250    -2.9490     0.5430 hn         1 76B       0.378000
     52 O23          2.3580     3.6140     1.2650 oh         1 76B      -0.576100
@<TRIPOS>BOND
     1     1    15 2   
     2     1    17 1   
     3     2    14 ar  
     4     2    19 ar  
     5     2    52 1   
     6     3     5 ar  
     7     3    14 ar  
     8     3    32 1   
     9     4     7 1   
    10     4    16 2   
    11     4    17 1   
    12     5    20 ar  
    13     5    21 1   
    14     6     8 ar  
    15     6    15 1   
    16     6    30 ar  
    17     7    26 1   
    18     7    33 1   
    19     7    34 1   
    20     8    11 ar  
    21     8    35 1   
    22     9    21 ar  
    23     9    28 ar  
    24     9    36 1   
    25    10    13 ar  
    26    10    21 ar  
    27    10    37 1   
    28    11    22 ar  
    29    11    31 1   
    30    12    13 ar  
    31    12    28 ar  
    32    12    29 1   
    33    13    38 1   
    34    14    18 1   
    35    15    16 1   
    36    17    51 1   
    37    18    23 2   
    38    18    24 1   
    39    19    20 ar  
    40    19    25 1   
    41    20    39 1   
    42    22    27 ar  
    43    24    26 1   
    44    24    40 1   
    45    25    42 1   
    46    26    43 1   
    47    26    44 1   
    48    27    30 ar  
    49    27    45 1   
    50    28    46 1   
    51    30    47 1   
    52    31    48 1   
    53    31    49 1   
    54    31    50 1   
    55    41    52 1   
@<TRIPOS>SUBSTRUCTURE
     1 76B         1 TEMP              0 ****  ****    0 ROOT
