@<TRIPOS>MOLECULE
76C
   50    53     1     0     0
SMALL
abcg2


@<TRIPOS>ATOM
      1 C10          3.6230    -3.1420    -0.5080 cg         1 76C       0.356000
      2 C13          0.5520    -0.2010    -3.1140 c3         1 76C      -0.106100
      3 C17         -3.0250    -1.0080     0.1730 ca         1 76C      -0.194600
      4 C20         -4.2630    -1.4170     0.6990 ca         1 76C       0.181000
      5 C21         -4.5900    -2.7540     0.7830 ca         1 76C      -0.132000
      6 C22         -3.6870    -3.7200     0.3410 ca         1 76C      -0.064000
      7 C26         -0.8530     1.9140    -0.5110 ca         1 76C      -0.012400
      8 C01          2.8200    -0.8140    -0.4220 ca         1 76C       0.491900
      9 C02          3.7590    -1.8160    -0.0720 ca         1 76C      -0.355000
     10 C03          4.8520    -1.4070     0.7340 ca         1 76C       0.492900
     11 N04          4.9760    -0.1490     1.1420 nb         1 76C      -0.371000
     12 C05          4.0280     0.7050     0.7560 ca         1 76C       0.481900
     13 N06          2.9640     0.4350    -0.0080 nb         1 76C      -0.386000
     14 N07          5.7960    -2.2700     1.1100 nv         1 76C      -1.071900
     15 N08          4.1450     1.9660     1.1830 nv         1 76C      -1.069900
     16 N09          1.7660    -1.1140    -1.1990 nu         1 76C      -0.915100
     17 N11          3.5080    -4.2360    -0.8700 n1         1 76C      -0.503000
     18 C12          0.7640    -0.1640    -1.6020 c3         1 76C       0.205200
     19 C14         -0.5530    -0.4680    -0.9110 cc         1 76C       0.500900
     20 N15         -1.3340     0.5720    -0.4720 n          1 76C      -0.262500
     21 C16         -2.6060     0.3870     0.0870 c          1 76C       0.580600
     22 C18         -2.1310    -2.0000    -0.2770 ca         1 76C       0.199400
     23 N19         -0.9120    -1.6910    -0.8240 nd         1 76C      -0.641100
     24 C23         -2.4710    -3.3530    -0.1860 ca         1 76C      -0.104000
     25 O25         -3.2310     1.3540     0.4610 o          1 76C      -0.491000
     26 C27         -1.1380     2.7070    -1.6110 ca         1 76C       0.345900
     27 N28         -0.6930     3.9470    -1.7330 nb         1 76C      -0.640000
     28 C29          0.0580     4.4390    -0.7580 ca         1 76C       0.316900
     29 C30          0.3650     3.7010     0.3680 ca         1 76C       0.107000
     30 C31         -0.0990     2.4080     0.5510 ca         1 76C      -0.038300
     31 C32          0.2220     1.6210     1.7780 c3         1 76C      -0.057800
     32 F33          1.1420     4.2500     1.3100 f          1 76C      -0.173000
     33 H1           1.4790     0.0640    -3.6220 hc         1 76C       0.054700
     34 H2           0.2430    -1.1930    -3.4420 hc         1 76C       0.054700
     35 H3          -0.2160     0.5090    -3.4200 hc         1 76C       0.054700
     36 H4          -5.5450    -3.0520     1.1910 ha         1 76C       0.135000
     37 H5          -3.9560    -4.7650     0.4140 ha         1 76C       0.125000
     38 H6           5.7850    -3.2390     0.8440 hn         1 76C       0.505500
     39 H7           6.5620    -1.9510     1.6770 hn         1 76C       0.505500
     40 H8           4.9280     2.2430     1.7490 hn         1 76C       0.508500
     41 H9           3.4770     2.6640     0.9100 hn         1 76C       0.508500
     42 H10          1.6180    -2.0740    -1.4710 hn         1 76C       0.521000
     43 H11          1.1320     0.8200    -1.3210 h1         1 76C       0.109700
     44 H12         -1.7640    -4.0910    -0.5380 ha         1 76C       0.140000
     45 H13         -1.7450     2.3140    -2.4200 h4         1 76C       0.035100
     46 H14          0.4310     5.4520    -0.8660 h4         1 76C       0.040100
     47 H15          1.2090     1.1680     1.6840 hc         1 76C       0.064033
     48 H16          0.2250     2.2520     2.6650 hc         1 76C       0.064033
     49 H17         -0.4910     0.8170     1.9430 hc         1 76C       0.064033
     50 CL2         -5.4470    -0.2930     1.2610 cl         1 76C      -0.160000
@<TRIPOS>BOND
     1     1     9 1   
     2     1    17 3   
     3     2    18 1   
     4     2    33 1   
     5     2    34 1   
     6     2    35 1   
     7     3     4 ar  
     8     3    21 1   
     9     3    22 ar  
    10     4     5 ar  
    11     4    50 1   
    12     5     6 ar  
    13     5    36 1   
    14     6    24 ar  
    15     6    37 1   
    16     7    20 1   
    17     7    26 ar  
    18     7    30 ar  
    19     8     9 ar  
    20     8    13 ar  
    21     8    16 1   
    22     9    10 ar  
    23    10    11 ar  
    24    10    14 1   
    25    11    12 ar  
    26    12    13 ar  
    27    12    15 1   
    28    14    38 1   
    29    14    39 1   
    30    15    40 1   
    31    15    41 1   
    32    16    18 1   
    33    16    42 1   
    34    18    19 1   
    35    18    43 1   
    36    19    20 1   
    37    19    23 2   
    38    20    21 1   
    39    21    25 2   
    40    22    23 1   
    41    22    24 ar  
    42    24    44 1   
    43    26    27 ar  
    44    26    45 1   
    45    27    28 ar  
    46    28    29 ar  
    47    28    46 1   
    48    29    30 ar  
    49    29    32 1   
    50    30    31 1   
    51    31    47 1   
    52    31    48 1   
    53    31    49 1   
@<TRIPOS>SUBSTRUCTURE
     1 76C         1 TEMP              0 ****  ****    0 ROOT
