@<TRIPOS>MOLECULE
76C
   50    53     1     0     0
SMALL
No Charge or Current Charge


@<TRIPOS>ATOM
      1 C10          3.4470    -2.0010     0.9660 cg         1 76C       0.356000
      2 C13          0.7350    -1.1780    -3.3660 c3         1 76C      -0.106100
      3 C17         -3.2180    -1.1140    -0.0300 ca         1 76C      -0.194600
      4 C20         -4.4910    -1.4000     0.5390 ca         1 76C       0.181000
      5 C21         -5.1880    -2.5580     0.1620 ca         1 76C      -0.132000
      6 C22         -4.6400    -3.4420    -0.7740 ca         1 76C      -0.064000
      7 C26         -0.2890     1.2880     0.0670 ca         1 76C      -0.012400
      8 C01          2.7960    -0.2100    -0.6090 ca         1 76C       0.491900
      9 C02          3.6100    -0.6890     0.4240 ca         1 76C      -0.355000
     10 C03          4.5810     0.1930     0.9040 ca         1 76C       0.492900
     11 N04          4.7430     1.4220     0.4160 nb         1 76C      -0.371000
     12 C05          3.9110     1.7550    -0.5670 ca         1 76C       0.481900
     13 N06          2.9450     1.0220    -1.1110 nb         1 76C      -0.386000
     14 N07          5.4410    -0.1180     1.9010 nv         1 76C      -1.071900
     15 N08          4.0610     2.9920    -1.0700 nv         1 76C      -1.069900
     16 N09          1.7790    -0.9830    -1.1560 nu         1 76C      -0.915100
     17 N11          3.3030    -3.0740     1.3980 n1         1 76C      -0.503000
     18 C12          0.6170    -0.5180    -1.9710 c3         1 76C       0.205200
     19 C14         -0.7480    -0.7320    -1.2660 cc         1 76C       0.500900
     20 N15         -1.1630     0.2000    -0.3030 n          1 76C      -0.262500
     21 C16         -2.4080     0.0870     0.3190 c          1 76C       0.580600
     22 C18         -2.6720    -2.0050    -0.9700 ca         1 76C       0.199400
     23 N19         -1.4400    -1.8280    -1.6010 nd         1 76C      -0.641100
     24 C23         -3.3880    -3.1600    -1.3330 ca         1 76C      -0.104000
     25 O25         -2.7800     0.9430     1.1100 o          1 76C      -0.491000
     26 C27         -0.3840     2.5240    -0.6160 ca         1 76C       0.345900
     27 N28          0.3000     3.6360    -0.2570 nb         1 76C      -0.640000
     28 C29          1.0770     3.5570     0.8500 ca         1 76C       0.316900
     29 C30          1.1760     2.3950     1.6410 ca         1 76C       0.107000
     30 C31          0.4640     1.2360     1.2660 ca         1 76C      -0.038300
     31 C32          0.5100    -0.0250     2.1310 c3         1 76C      -0.057800
     32 F33          1.9390     2.4070     2.7600 f          1 76C      -0.173000
     33 H1           1.6810    -0.8970    -3.8430 hc         1 76C       0.054700
     34 H2           0.7010    -2.2720    -3.2940 hc         1 76C       0.054700
     35 H3          -0.0830    -0.8490    -4.0180 hc         1 76C       0.054700
     36 H4          -6.1600    -2.7720     0.6000 ha         1 76C       0.135000
     37 H5          -5.1810    -4.3390    -1.0660 ha         1 76C       0.125000
     38 H6           5.5710    -1.0960     2.1460 hn         1 76C       0.505500
     39 H7           6.2400     0.4940     2.0440 hn         1 76C       0.505500
     40 H8           4.6250     3.6540    -0.5450 hn         1 76C       0.508500
     41 H9           3.3060     3.3740    -1.6310 hn         1 76C       0.508500
     42 H10          1.7490    -1.9480    -0.8270 hn         1 76C       0.521000
     43 H11          0.6980     0.5590    -2.1690 h1         1 76C       0.109700
     44 H12         -2.9630    -3.8460    -2.0620 ha         1 76C       0.140000
     45 H13         -1.0260     2.6200    -1.4910 h4         1 76C       0.035100
     46 H14          1.6200     4.4600     1.1270 h4         1 76C       0.040100
     47 H15          0.4300    -0.9380     1.5300 hc         1 76C       0.064033
     48 H16          1.4480    -0.0990     2.6930 hc         1 76C       0.064033
     49 H17         -0.3130    -0.0300     2.8550 hc         1 76C       0.064033
     50 Cl2         -5.2920    -0.3730     1.7330 cl         1 76C      -0.160000
@<TRIPOS>BOND
     1     1     9 1   
     2     1    17 3   
     3     2    18 1   
     4     2    33 1   
     5     2    34 1   
     6     2    35 1   
     7     3     4 ar  
     8     3    21 1   
     9     3    22 ar  
    10     4     5 ar  
    11     4    50 1   
    12     5     6 ar  
    13     5    36 1   
    14     6    24 ar  
    15     6    37 1   
    16     7    20 1   
    17     7    26 ar  
    18     7    30 ar  
    19     8     9 ar  
    20     8    13 ar  
    21     8    16 1   
    22     9    10 ar  
    23    10    11 ar  
    24    10    14 1   
    25    11    12 ar  
    26    12    13 ar  
    27    12    15 1   
    28    14    38 1   
    29    14    39 1   
    30    15    40 1   
    31    15    41 1   
    32    16    18 1   
    33    16    42 1   
    34    18    19 1   
    35    18    43 1   
    36    19    20 1   
    37    19    23 2   
    38    20    21 1   
    39    21    25 2   
    40    22    23 1   
    41    22    24 ar  
    42    24    44 1   
    43    26    27 ar  
    44    26    45 1   
    45    27    28 ar  
    46    28    29 ar  
    47    28    46 1   
    48    29    30 ar  
    49    29    32 1   
    50    30    31 1   
    51    31    47 1   
    52    31    48 1   
    53    31    49 1   
@<TRIPOS>SUBSTRUCTURE
     1 76C         1 TEMP              0 ****  ****    0 ROOT
