@<TRIPOS>MOLECULE
76D
   41    41     1     0     0
SMALL
abcg2


@<TRIPOS>ATOM
      1 OAG          2.9580     0.9580     1.0560 o          1 76D      -0.719000
      2 CAK          2.3360     0.7890    -0.0110 c          1 76D       0.709600
      3 OAH          2.7510     1.0090    -1.1650 o          1 76D      -0.719000
      4 CAO          0.9120     0.2650     0.0930 ca         1 76D      -0.094600
      5 CAM         -0.1610     1.1650     0.0950 ca         1 76D      -0.064300
      6 CAQ          0.0720     2.6620     0.0110 c3         1 76D      -0.015400
      7 CAD         -0.1260     3.1430    -1.4270 c3         1 76D      -0.079600
      8 CAC         -0.8000     3.4580     0.9810 c3         1 76D      -0.079600
      9 CAI         -1.4610     0.6710     0.1200 ca         1 76D      -0.115500
     10 CAL         -1.7290    -0.6930     0.1540 ca         1 76D      -0.123300
     11 CAP         -3.1480    -1.2120     0.1790 c3         1 76D      -0.003400
     12 CAB         -3.8720    -0.8070     1.4630 c3         1 76D      -0.080100
     13 CAA         -3.9350    -0.7700    -1.0540 c3         1 76D      -0.080100
     14 CAJ         -0.6490    -1.5660     0.1760 ca         1 76D      -0.115500
     15 CAN          0.6680    -1.1120     0.1540 ca         1 76D      -0.064300
     16 CAR          1.8140    -2.1050     0.1300 c3         1 76D      -0.015400
     17 CAF          1.5670    -3.3440     0.9880 c3         1 76D      -0.079600
     18 CAE          2.1370    -2.5030    -1.3120 c3         1 76D      -0.079600
     19 H2           1.1080     2.8650     0.2900 hc         1 76D       0.087200
     20 H3          -1.1550     2.9780    -1.7560 hc         1 76D       0.023700
     21 H4           0.0860     4.2100    -1.5180 hc         1 76D       0.023700
     22 H5           0.5360     2.6080    -2.1070 hc         1 76D       0.023700
     23 H6          -0.6380     3.1420     2.0120 hc         1 76D       0.023700
     24 H7          -0.5600     4.5200     0.9160 hc         1 76D       0.023700
     25 H8          -1.8640     3.3540     0.7630 hc         1 76D       0.023700
     26 H9          -2.2900     1.3710     0.1040 ha         1 76D       0.086000
     27 H10         -3.0960    -2.3060     0.1620 hc         1 76D       0.034700
     28 H11         -4.8800    -1.2240     1.4870 hc         1 76D       0.025200
     29 H12         -3.3420    -1.1640     2.3470 hc         1 76D       0.025200
     30 H13         -3.9630     0.2780     1.5440 hc         1 76D       0.025200
     31 H14         -3.4500    -1.1000    -1.9740 hc         1 76D       0.025200
     32 H15         -4.9430    -1.1870    -1.0390 hc         1 76D       0.025200
     33 H16         -4.0310     0.3170    -1.0990 hc         1 76D       0.025200
     34 H17         -0.8450    -2.6320     0.2070 ha         1 76D       0.086000
     35 H18          2.6950    -1.6090     0.5430 hc         1 76D       0.087200
     36 H19          2.4700    -3.9560     1.0240 hc         1 76D       0.023700
     37 H20          1.3020    -3.0780     2.0120 hc         1 76D       0.023700
     38 H21          0.7690    -3.9720     0.5890 hc         1 76D       0.023700
     39 H22          2.3860    -1.6280    -1.9110 hc         1 76D       0.023700
     40 H23          2.9860    -3.1900    -1.3480 hc         1 76D       0.023700
     41 H24          1.2840    -3.0020    -1.7780 hc         1 76D       0.023700
@<TRIPOS>BOND
     1     1     2 1   
     2     2     3 1   
     3     2     4 1   
     4     4     5 ar  
     5     4    15 ar  
     6     5     6 1   
     7     5     9 ar  
     8     6     7 1   
     9     6     8 1   
    10     6    19 1   
    11     7    20 1   
    12     7    21 1   
    13     7    22 1   
    14     8    23 1   
    15     8    24 1   
    16     8    25 1   
    17     9    10 ar  
    18     9    26 1   
    19    10    11 1   
    20    10    14 ar  
    21    11    12 1   
    22    11    13 1   
    23    11    27 1   
    24    12    28 1   
    25    12    29 1   
    26    12    30 1   
    27    13    31 1   
    28    13    32 1   
    29    13    33 1   
    30    14    15 ar  
    31    14    34 1   
    32    15    16 1   
    33    16    17 1   
    34    16    18 1   
    35    16    35 1   
    36    17    36 1   
    37    17    37 1   
    38    17    38 1   
    39    18    39 1   
    40    18    40 1   
    41    18    41 1   
@<TRIPOS>SUBSTRUCTURE
     1 76D         1 TEMP              0 ****  ****    0 ROOT
