@<TRIPOS>MOLECULE
76D
   41    41     1     0     0
SMALL
No Charge or Current Charge


@<TRIPOS>ATOM
      1 OAG          2.9110     1.0110     1.1150 o          1 76D      -0.719000
      2 CAK          2.3800     0.8140     0.0310 c          1 76D       0.709600
      3 OAH          2.9310     1.0150    -1.0420 o          1 76D      -0.719000
      4 CAO          0.9620     0.2940     0.0170 ca         1 76D      -0.094600
      5 CAM         -0.1330     1.2040     0.0090 ca         1 76D      -0.064300
      6 CAQ          0.0670     2.7320     0.0140 c3         1 76D      -0.015400
      7 CAD         -0.5030     3.3810    -1.2680 c3         1 76D      -0.079600
      8 CAC         -0.5260     3.3750     1.2890 c3         1 76D      -0.079600
      9 CAI         -1.4490     0.6980    -0.0040 ca         1 76D      -0.115500
     10 CAL         -1.7010    -0.6830    -0.0100 ca         1 76D      -0.123300
     11 CAP         -3.1360    -1.2190    -0.0250 c3         1 76D      -0.003400
     12 CAB         -3.9080    -0.8050     1.2480 c3         1 76D      -0.080100
     13 CAA         -3.8840    -0.7990    -1.3090 c3         1 76D      -0.080100
     14 CAJ         -0.6160    -1.5740    -0.0020 ca         1 76D      -0.115500
     15 CAN          0.7150    -1.1080     0.0110 ca         1 76D      -0.064300
     16 CAR          1.8560    -2.1440     0.0190 c3         1 76D      -0.015400
     17 CAF          1.8200    -3.0160     1.2950 c3         1 76D      -0.079600
     18 CAE          1.8430    -3.0100    -1.2610 c3         1 76D      -0.079600
     19 H2           1.1330     2.9820     0.0250 hc         1 76D       0.087200
     20 H3          -1.5910     3.2600    -1.3280 hc         1 76D       0.023700
     21 H4          -0.2800     4.4550    -1.2880 hc         1 76D       0.023700
     22 H5          -0.0560     2.9250    -2.1590 hc         1 76D       0.023700
     23 H6          -0.0960     2.9150     2.1860 hc         1 76D       0.023700
     24 H7          -0.3040     4.4490     1.3190 hc         1 76D       0.023700
     25 H8          -1.6150     3.2530     1.3290 hc         1 76D       0.023700
     26 H9          -2.2880     1.3890    -0.0100 ha         1 76D       0.086000
     27 H10         -3.1040    -2.3160    -0.0270 hc         1 76D       0.034700
     28 H11         -4.9040    -1.2640     1.2610 hc         1 76D       0.025200
     29 H12         -3.3710    -1.1340     2.1460 hc         1 76D       0.025200
     30 H13         -4.0330     0.2830     1.3010 hc         1 76D       0.025200
     31 H14         -3.3310    -1.1230    -2.1980 hc         1 76D       0.025200
     32 H15         -4.8800    -1.2580    -1.3430 hc         1 76D       0.025200
     33 H16         -4.0080     0.2890    -1.3590 hc         1 76D       0.025200
     34 H17         -0.8100    -2.6430    -0.0070 ha         1 76D       0.086000
     35 H18          2.8310    -1.6440     0.0290 hc         1 76D       0.087200
     36 H19          2.6850    -3.6890     1.3260 hc         1 76D       0.023700
     37 H20          1.8490    -2.3840     2.1910 hc         1 76D       0.023700
     38 H21          0.9110    -3.6270     1.3360 hc         1 76D       0.023700
     39 H22          1.8880    -2.3740    -2.1540 hc         1 76D       0.023700
     40 H23          2.7080    -3.6840    -1.2800 hc         1 76D       0.023700
     41 H24          0.9350    -3.6220    -1.3210 hc         1 76D       0.023700
@<TRIPOS>BOND
     1     1     2 1   
     2     2     3 1   
     3     2     4 1   
     4     4     5 ar  
     5     4    15 ar  
     6     5     6 1   
     7     5     9 ar  
     8     6     7 1   
     9     6     8 1   
    10     6    19 1   
    11     7    20 1   
    12     7    21 1   
    13     7    22 1   
    14     8    23 1   
    15     8    24 1   
    16     8    25 1   
    17     9    10 ar  
    18     9    26 1   
    19    10    11 1   
    20    10    14 ar  
    21    11    12 1   
    22    11    13 1   
    23    11    27 1   
    24    12    28 1   
    25    12    29 1   
    26    12    30 1   
    27    13    31 1   
    28    13    32 1   
    29    13    33 1   
    30    14    15 ar  
    31    14    34 1   
    32    15    16 1   
    33    16    17 1   
    34    16    18 1   
    35    16    35 1   
    36    17    36 1   
    37    17    37 1   
    38    17    38 1   
    39    18    39 1   
    40    18    40 1   
    41    18    41 1   
@<TRIPOS>SUBSTRUCTURE
     1 76D         1 TEMP              0 ****  ****    0 ROOT
