@<TRIPOS>MOLECULE
76E
   52    55     1     0     0
SMALL
No Charge or Current Charge


@<TRIPOS>ATOM
      1 C1           4.3650    -2.5240    -1.3060 ca         1 76E      -0.138000
      2 C2          -6.6870    -0.6460     1.8930 ca         1 76E      -0.058000
      3 C3           3.1290    -2.7170    -1.9460 ca         1 76E      -0.010000
      4 C4          -0.5970     1.3290    -1.9040 ca         1 76E      -0.106000
      5 C5           0.6930     1.7180    -2.3020 ca         1 76E      -0.096000
      6 C6          -6.3760    -1.3900     0.7460 ca         1 76E      -0.156000
      7 C7           4.4540    -1.7100    -0.1660 ca         1 76E       0.006000
      8 C8          -5.9230     0.4870     2.2070 ca         1 76E      -0.125000
      9 C9           0.0410     1.6420     0.4190 ca         1 76E      -0.145000
     10 C10          2.0550    -1.2850    -0.2990 ca         1 76E       0.039000
     11 C11         -4.5190     0.1240     0.2310 ca         1 76E      -0.205600
     12 C12          1.3420     2.0200     0.0270 ca         1 76E      -0.134300
     13 C13          1.9610    -2.1050    -1.4430 ca         1 76E      -0.216300
     14 C14         -0.9320     1.2820    -0.5340 ca         1 76E      -0.024000
     15 C15          1.6620     2.0480    -1.3440 ca         1 76E       0.089100
     16 C16         -5.3080    -1.0060    -0.0780 ca         1 76E       0.224000
     17 C17          3.2970    -1.0780     0.3310 ca         1 76E      -0.301500
     18 C18         -4.8480     0.8770     1.3890 ca         1 76E       0.165000
     19 C19         -3.3770     0.4880    -0.6810 c          1 76E       0.638700
     20 C20          2.3670     2.4290     1.0790 c3         1 76E       0.258100
     21 C21          4.5310     1.7730     0.0010 c3         1 76E       0.174800
     22 C22          4.0390     1.5390    -1.4570 c3         1 76E       0.134600
     23 C23          0.6210    -2.3140    -2.1530 c3         1 76E       0.359300
     24 N24          3.5660     1.5680     1.1150 n3         1 76E      -0.749500
     25 O26         -3.5040     0.4550    -1.8990 o          1 76E      -0.548100
     26 O29          2.9200     2.3910    -1.7760 os         1 76E      -0.352100
     27 F30         -5.0240    -1.7750    -1.1530 f          1 76E      -0.157000
     28 F31          0.4610    -3.5930    -2.5620 f          1 76E      -0.109667
     29 F32         -0.4420    -2.0260    -1.3670 f          1 76E      -0.109667
     30 F33          0.5220    -1.5340    -3.2520 f          1 76E      -0.109667
     31 S34          3.3990    -0.0040     1.7710 sy         1 76E       1.173600
     32 Cl35        -4.0100     2.3670     1.8310 cl         1 76E      -0.177000
     33 H1           5.2580    -3.0050    -1.6970 ha         1 76E       0.127000
     34 H3           3.0820    -3.3450    -2.8340 ha         1 76E       0.133000
     35 H7           5.4200    -1.5650     0.3160 ha         1 76E       0.138000
     36 H6          -6.9610    -2.2720     0.4940 ha         1 76E       0.143000
     37 H8          -6.1710     1.0760     3.0870 ha         1 76E       0.139000
     38 H4          -1.3110     1.0620    -2.6760 ha         1 76E       0.156000
     39 H5           0.9500     1.7440    -3.3580 ha         1 76E       0.131000
     40 H9          -0.2130     1.6170     1.4770 ha         1 76E       0.121000
     41 H10          1.1640    -0.8030     0.0970 ha         1 76E       0.150000
     42 H201         2.6650     3.4650     0.8680 h1         1 76E       0.082700
     43 H202         1.8850     2.4580     2.0660 h1         1 76E       0.082700
     44 H211         5.4210     1.1500     0.1600 h1         1 76E       0.078200
     45 H212         4.8920     2.8100     0.0410 h1         1 76E       0.078200
     46 H221         4.8750     1.7700    -2.1290 h1         1 76E       0.058200
     47 H222         3.7800     0.4890    -1.6250 h1         1 76E       0.058200
     48 N25         -2.2050     0.8790    -0.0450 ns         1 76E      -0.131000
     49 O27          2.0990    -0.0360     2.4500 o          1 76E      -0.534000
     50 O28          4.6370    -0.2590     2.5160 o          1 76E      -0.534000
     51 H2          -7.5170    -0.9420     2.5320 ha         1 76E       0.127000
     52 H25         -2.2690     0.8710     0.9640 hn         1 76E       0.162000
@<TRIPOS>BOND
     1     1     3 ar  
     2     1     7 ar  
     3     1    33 1   
     4     2     6 ar  
     5     2     8 ar  
     6     2    51 1   
     7     3    13 ar  
     8     3    34 1   
     9     4     5 ar  
    10     4    14 ar  
    11     4    38 1   
    12     5    15 ar  
    13     5    39 1   
    14     6    16 ar  
    15     6    36 1   
    16     7    17 ar  
    17     7    35 1   
    18     8    18 ar  
    19     8    37 1   
    20     9    12 ar  
    21     9    14 ar  
    22     9    40 1   
    23    10    13 ar  
    24    10    17 ar  
    25    10    41 1   
    26    11    16 ar  
    27    11    18 ar  
    28    11    19 1   
    29    12    15 ar  
    30    12    20 1   
    31    13    23 1   
    32    14    48 1   
    33    15    26 1   
    34    16    27 1   
    35    17    31 1   
    36    18    32 1   
    37    19    25 2   
    38    19    48 1   
    39    20    24 1   
    40    20    42 1   
    41    20    43 1   
    42    21    22 1   
    43    21    24 1   
    44    21    44 1   
    45    21    45 1   
    46    22    26 1   
    47    22    46 1   
    48    22    47 1   
    49    23    28 1   
    50    23    29 1   
    51    23    30 1   
    52    24    31 1   
    53    31    49 2   
    54    31    50 2   
    55    48    52 1   
@<TRIPOS>SUBSTRUCTURE
     1 76E         1 TEMP              0 ****  ****    0 ROOT
