@<TRIPOS>MOLECULE
76E
   52    55     1     0     0
SMALL
bcc


@<TRIPOS>ATOM
      1 C1           3.4630    -2.3260    -1.8220 ca         1 76E      -0.156000
      2 C2          -6.4320    -0.8550     1.3390 ca         1 76E      -0.076000
      3 C3           2.1070    -2.6040    -1.8550 ca         1 76E      -0.028000
      4 C4          -0.3680     1.5730    -1.9000 ca         1 76E      -0.124000
      5 C5           0.8990     2.0510    -2.1980 ca         1 76E      -0.114000
      6 C6          -5.6900    -1.7340     0.5640 ca         1 76E      -0.174000
      7 C7           4.0020    -1.5950    -0.7740 ca         1 76E      -0.012000
      8 C8          -6.0890     0.4860     1.4250 ca         1 76E      -0.143000
      9 C9           0.2550     1.4950     0.4170 ca         1 76E      -0.163000
     10 C10          1.8050    -1.4310     0.2280 ca         1 76E       0.021000
     11 C11         -4.2150     0.0900    -0.0590 ca         1 76E      -0.205600
     12 C12          1.5220     1.9700     0.1240 ca         1 76E      -0.134300
     13 C13          1.2810    -2.1630    -0.8250 ca         1 76E      -0.216300
     14 C14         -0.7020     1.2920    -0.5780 ca         1 76E       0.068600
     15 C15          1.8410     2.2590    -1.2030 ca         1 76E       0.089100
     16 C16         -4.6010    -1.2390    -0.1220 ca         1 76E       0.188900
     17 C17          3.1620    -1.1410     0.2320 ca         1 76E      -0.301500
     18 C18         -4.9850     0.9420     0.7240 ca         1 76E       0.073400
     19 C19         -3.0590     0.5780    -0.8880 c          1 76E       0.705700
     20 C20          2.5300     2.1910     1.2190 c3         1 76E       0.258100
     21 C21          4.7070     1.9300     0.0600 c3         1 76E       0.174800
     22 C22          4.1810     1.9350    -1.3640 c3         1 76E       0.111400
     23 C23         -0.1810    -2.4870    -0.8850 c3         1 76E       0.723200
     24 N24          3.7680     1.4340     1.0610 n3         1 76E      -0.749500
     25 O26         -3.1730     0.7370    -2.0860 o          1 76E      -0.548100
     26 O29          3.0530     2.7800    -1.5420 os         1 76E      -0.328900
     27 F30         -3.8730    -2.0660    -0.8790 f          1 76E      -0.121900
     28 F31         -0.3860    -3.7960    -1.0760 f          1 76E      -0.230967
     29 F32         -0.8250    -2.1470     0.2330 f          1 76E      -0.230967
     30 F33         -0.7780    -1.8530    -1.9010 f          1 76E      -0.230967
     31 S34          3.8300    -0.1380     1.5400 sy         1 76E       1.315200
     32 CL35        -4.5580     2.6150     0.8120 cl         1 76E      -0.085400
     33 H1           4.1060    -2.6860    -2.6130 ha         1 76E       0.145000
     34 H3           1.7050    -3.1730    -2.6830 ha         1 76E       0.151000
     35 H7           5.0640    -1.3900    -0.7520 ha         1 76E       0.156000
     36 H6          -5.9520    -2.7810     0.4930 ha         1 76E       0.161000
     37 H8          -6.6730     1.1670     2.0270 ha         1 76E       0.157000
     38 H4          -1.0720     1.4210    -2.7010 ha         1 76E       0.174000
     39 H5           1.1560     2.2710    -3.2260 ha         1 76E       0.149000
     40 H9           0.0050     1.2760     1.4500 ha         1 76E       0.139000
     41 H10          1.1770    -1.0970     1.0410 ha         1 76E       0.168000
     42 H201         2.8270     3.2430     1.2480 h1         1 76E       0.082700
     43 H202         2.0900     1.9700     2.1890 h1         1 76E       0.082700
     44 H211         5.6270     1.3480     0.0930 h1         1 76E       0.078200
     45 H212         4.9740     2.9480     0.3550 h1         1 76E       0.078200
     46 H221         4.9670     2.3300    -2.0100 h1         1 76E       0.058200
     47 H222         3.9510     0.9230    -1.7080 h1         1 76E       0.058200
     48 N25         -1.9470     0.8060    -0.1610 ns         1 76E      -0.457100
     49 O27          2.9400    -0.2660     2.6810 o          1 76E      -0.604800
     50 O28          5.2340    -0.4900     1.6660 o          1 76E      -0.604800
     51 H2          -7.2920    -1.2200     1.8830 ha         1 76E       0.145000
     52 H25         -2.0190     0.6100     0.8270 hn         1 76E       0.328500
@<TRIPOS>BOND
     1     1     3 ar  
     2     1     7 ar  
     3     1    33 1   
     4     2     6 ar  
     5     2     8 ar  
     6     2    51 1   
     7     3    13 ar  
     8     3    34 1   
     9     4     5 ar  
    10     4    14 ar  
    11     4    38 1   
    12     5    15 ar  
    13     5    39 1   
    14     6    16 ar  
    15     6    36 1   
    16     7    17 ar  
    17     7    35 1   
    18     8    18 ar  
    19     8    37 1   
    20     9    12 ar  
    21     9    14 ar  
    22     9    40 1   
    23    10    13 ar  
    24    10    17 ar  
    25    10    41 1   
    26    11    16 ar  
    27    11    18 ar  
    28    11    19 1   
    29    12    15 ar  
    30    12    20 1   
    31    13    23 1   
    32    14    48 1   
    33    15    26 1   
    34    16    27 1   
    35    17    31 1   
    36    18    32 1   
    37    19    25 2   
    38    19    48 1   
    39    20    24 1   
    40    20    42 1   
    41    20    43 1   
    42    21    22 1   
    43    21    24 1   
    44    21    44 1   
    45    21    45 1   
    46    22    26 1   
    47    22    46 1   
    48    22    47 1   
    49    23    28 1   
    50    23    29 1   
    51    23    30 1   
    52    24    31 1   
    53    31    49 2   
    54    31    50 2   
    55    48    52 1   
@<TRIPOS>SUBSTRUCTURE
     1 76E         1 TEMP              0 ****  ****    0 ROOT
