@<TRIPOS>MOLECULE
76G
   52    55     1     0     0
SMALL
bcc


@<TRIPOS>ATOM
      1 N1           0.7930    -1.2150     0.1000 ns         1 76G      -0.543900
      2 C4          -2.9060    -0.3880     0.0290 c3         1 76G      -0.073400
      3 C5          -3.6800     0.9110    -0.2010 c3         1 76G      -0.017200
      4 C6          -5.1520     0.7450    -0.0310 cc         1 76G      -0.035600
      5 C8          -5.9240     1.1730     0.9970 cd         1 76G      -0.131200
      6 C10         -7.5270     0.0760    -0.3230 ca         1 76G      -0.166400
      7 N12         -9.8340    -0.1340     0.1590 nb         1 76G      -0.662000
      8 C13         -9.6270     0.5590     1.2880 ca         1 76G       0.393200
      9 C17          5.8670    -1.2430    -0.1000 ca         1 76G      -0.106000
     10 C20          4.9500    -0.1910     0.0160 cp         1 76G      -0.048000
     11 C21          5.4240     1.2020     0.1410 cp         1 76G      -0.043000
     12 C22          1.6990    -2.1710    -0.0910 c          1 76G       0.694700
     13 C24          5.4430    -2.5490    -0.2130 ca         1 76G       0.096100
     14 C26          7.0470     2.8050     0.9680 ca         1 76G      -0.169000
     15 C28          5.1540     3.5690    -0.3210 ca         1 76G      -0.169000
     16 C2          -0.6350    -1.4660     0.1500 c3         1 76G       0.099000
     17 C3          -1.4040    -0.1780    -0.0940 c3         1 76G      -0.096400
     18 S7          -6.0650    -0.1350    -1.2250 ss         1 76G      -0.053500
     19 C9          -7.2980     0.8030     0.8560 ca         1 76G      -0.037800
     20 C11         -8.8060    -0.3720    -0.6340 ca         1 76G       0.445200
     21 C14         -8.3990     1.0460     1.6830 ca         1 76G      -0.209300
     22 O15          6.3540    -3.5330    -0.3290 oh         1 76G      -0.493100
     23 O16          3.7350    -4.1300    -0.3440 oh         1 76G      -0.539100
     24 C18          3.1390    -1.8040    -0.0980 ca         1 76G      -0.232600
     25 C19          3.5980    -0.4870     0.0150 ca         1 76G      -0.090000
     26 C23          4.0680    -2.8440    -0.2200 ca         1 76G       0.139100
     27 C25          6.5910     1.5020     0.8450 ca         1 76G      -0.095000
     28 C27          6.3160     3.8200     0.3810 ca         1 76G       0.137900
     29 C29          4.7180     2.2580    -0.4390 ca         1 76G      -0.095000
     30 F30          6.7500     5.0850     0.4920 f          1 76G      -0.141900
     31 O31          1.3590    -3.3530    -0.2650 o          1 76G      -0.653100
     32 H1           1.0940    -0.2840     0.3320 hn         1 76G       0.320500
     33 H2          -3.1460    -0.7770     1.0220 hc         1 76G       0.052200
     34 H3          -3.2320    -1.1470    -0.6890 hc         1 76G       0.052200
     35 H4          -3.3390     1.6700     0.5070 hc         1 76G       0.055700
     36 H5          -3.4610     1.2960    -1.2020 hc         1 76G       0.055700
     37 H6          -5.5340     1.7330     1.8360 ha         1 76G       0.157000
     38 H7         -10.4990     0.7310     1.9070 h4         1 76G       0.021100
     39 H8           6.9320    -1.0430    -0.1230 ha         1 76G       0.153000
     40 H9           7.9510     3.0260     1.5200 ha         1 76G       0.151000
     41 H10          4.6020     4.3780    -0.7800 ha         1 76G       0.151000
     42 H11         -0.8930    -2.2070    -0.6070 h1         1 76G       0.060700
     43 H12         -0.9080    -1.8880     1.1220 h1         1 76G       0.060700
     44 H13         -1.1630     0.2070    -1.0890 hc         1 76G       0.045700
     45 H14         -1.0860     0.5830     0.6260 hc         1 76G       0.045700
     46 H15         -8.9960    -0.9320    -1.5430 h4         1 76G       0.027100
     47 H16         -8.2980     1.6010     2.6060 ha         1 76G       0.144000
     48 H17          5.9140    -4.3890    -0.3950 ho         1 76G       0.449000
     49 H18          2.7400    -4.1570    -0.3540 ho         1 76G       0.498000
     50 H19          2.8980     0.3310     0.1180 ha         1 76G       0.124000
     51 H20          7.1530     0.7110     1.3260 ha         1 76G       0.136500
     52 H21          3.8210     2.0610    -1.0120 ha         1 76G       0.136500
@<TRIPOS>BOND
     1     1    12 1   
     2     1    16 1   
     3     1    32 1   
     4     2     3 1   
     5     2    17 1   
     6     2    33 1   
     7     2    34 1   
     8     3     4 1   
     9     3    35 1   
    10     3    36 1   
    11     4     5 2   
    12     4    18 1   
    13     5    19 1   
    14     5    37 1   
    15     6    18 1   
    16     6    19 ar  
    17     6    20 ar  
    18     7     8 ar  
    19     7    20 ar  
    20     8    21 ar  
    21     8    38 1   
    22     9    10 ar  
    23     9    13 ar  
    24     9    39 1   
    25    10    11 1   
    26    10    25 ar  
    27    11    27 ar  
    28    11    29 ar  
    29    12    24 1   
    30    12    31 2   
    31    13    22 1   
    32    13    26 ar  
    33    14    27 ar  
    34    14    28 ar  
    35    14    40 1   
    36    15    28 ar  
    37    15    29 ar  
    38    15    41 1   
    39    16    17 1   
    40    16    42 1   
    41    16    43 1   
    42    17    44 1   
    43    17    45 1   
    44    19    21 ar  
    45    20    46 1   
    46    21    47 1   
    47    22    48 1   
    48    23    26 1   
    49    23    49 1   
    50    24    25 ar  
    51    24    26 ar  
    52    25    50 1   
    53    27    51 1   
    54    28    30 1   
    55    29    52 1   
@<TRIPOS>SUBSTRUCTURE
     1 76G         1 TEMP              0 ****  ****    0 ROOT
