@<TRIPOS>MOLECULE
76G
   52    55     1     0     0
SMALL
No Charge or Current Charge


@<TRIPOS>ATOM
      1 N1           0.8360    -1.3190     0.0140 ns         1 76G      -0.476900
      2 C4          -2.8990    -0.3360     0.0680 c3         1 76G      -0.073400
      3 C5          -3.6580     1.0080     0.1030 c3         1 76G      -0.017200
      4 C6          -5.1510     0.8300     0.1210 cc         1 76G      -0.035600
      5 C8          -6.0010     0.9300     1.2060 cd         1 76G      -0.181200
      6 C10         -7.5700     0.4370    -0.4320 ca         1 76G      -0.228000
      7 N12         -9.9500     0.2060    -0.1230 nb         1 76G      -0.662000
      8 C13         -9.7600     0.4730     1.1980 ca         1 76G       0.327900
      9 C17          5.9720    -1.2680    -0.0360 ca         1 76G      -0.088000
     10 C20          5.0050    -0.2370     0.0080 cp         1 76G      -0.048000
     11 C21          5.4190     1.2020     0.0530 cp         1 76G      -0.043000
     12 C22          1.7530    -2.3420    -0.0300 c          1 76G       0.627700
     13 C24          5.5830    -2.6130    -0.0800 ca         1 76G       0.096100
     14 C26          6.9530     2.9610     0.8290 ca         1 76G      -0.151000
     15 C28          5.0710     3.5490    -0.5940 ca         1 76G      -0.151000
     16 C2          -0.6140    -1.5120     0.0230 c3         1 76G       0.099000
     17 C3          -1.3640    -0.1670     0.0580 c3         1 76G      -0.096400
     18 S7          -6.0560     0.4470    -1.3770 ss         1 76G       0.073400
     19 C9          -7.3900     0.7060     0.9020 ca         1 76G      -0.037800
     20 C11         -8.8590     0.1890    -0.9320 ca         1 76G       0.379900
     21 C14         -8.4940     0.7310     1.7610 ca         1 76G      -0.126000
     22 O15          6.5310    -3.5980    -0.1270 oh         1 76G      -0.532100
     23 O16          3.8700    -4.2830    -0.1220 oh         1 76G      -0.578100
     24 C18          3.2190    -1.9600    -0.0340 ca         1 76G      -0.232600
     25 C19          3.6340    -0.6030     0.0090 ca         1 76G      -0.072000
     26 C23          4.2170    -2.9610    -0.0790 ca         1 76G       0.139100
     27 C25          6.5640     1.6100     0.7850 ca         1 76G      -0.077000
     28 C27          6.2050     3.9260     0.1390 ca         1 76G       0.173000
     29 C29          4.6800     2.1990    -0.6360 ca         1 76G      -0.077000
     30 F30          6.5800     5.2230     0.1800 f          1 76G      -0.177000
     31 O31          1.3940    -3.5140    -0.0640 o          1 76G      -0.653100
     32 H1           1.2000    -0.3770     0.0410 hn         1 76G       0.320500
     33 H2          -3.1920    -0.9330     0.9410 hc         1 76G       0.052200
     34 H3          -3.2070    -0.8990    -0.8220 hc         1 76G       0.052200
     35 H4          -3.3440     1.5780     0.9860 hc         1 76G       0.055700
     36 H5          -3.3720     1.6070    -0.7710 hc         1 76G       0.055700
     37 H6          -5.6430     1.1570     2.2060 ha         1 76G       0.207000
     38 H7         -10.6530     0.4810     1.8220 h4         1 76G       0.021100
     39 H8           7.0300    -1.0240    -0.0510 ha         1 76G       0.135000
     40 H9           7.8300     3.2600     1.3970 ha         1 76G       0.133000
     41 H10          4.4980     4.3020    -1.1290 ha         1 76G       0.133000
     42 H11         -0.9030    -2.0730    -0.8760 h1         1 76G       0.060700
     43 H12         -0.8870    -2.1100     0.9040 h1         1 76G       0.060700
     44 H13         -1.0720     0.4300    -0.8160 hc         1 76G       0.045700
     45 H14         -1.0560     0.3930     0.9500 hc         1 76G       0.045700
     46 H15         -9.0260    -0.0260    -1.9870 h4         1 76G       0.027100
     47 H16         -8.3870     0.9400     2.8220 ha         1 76G       0.126000
     48 H17          6.0380    -4.4500    -0.1530 ho         1 76G       0.488000
     49 H18          2.8710    -4.2960    -0.1110 ho         1 76G       0.537000
     50 H19          2.8980     0.1940     0.0600 ha         1 76G       0.106000
     51 H20          7.1470     0.8760     1.3360 ha         1 76G       0.118500
     52 H21          3.8060     1.9220    -1.2210 ha         1 76G       0.118500
@<TRIPOS>BOND
     1     1    12 1   
     2     1    16 1   
     3     1    32 1   
     4     2     3 1   
     5     2    17 1   
     6     2    33 1   
     7     2    34 1   
     8     3     4 1   
     9     3    35 1   
    10     3    36 1   
    11     4     5 2   
    12     4    18 1   
    13     5    19 1   
    14     5    37 1   
    15     6    18 1   
    16     6    19 ar  
    17     6    20 ar  
    18     7     8 ar  
    19     7    20 ar  
    20     8    21 ar  
    21     8    38 1   
    22     9    10 ar  
    23     9    13 ar  
    24     9    39 1   
    25    10    11 1   
    26    10    25 ar  
    27    11    27 ar  
    28    11    29 ar  
    29    12    24 1   
    30    12    31 2   
    31    13    22 1   
    32    13    26 ar  
    33    14    27 ar  
    34    14    28 ar  
    35    14    40 1   
    36    15    28 ar  
    37    15    29 ar  
    38    15    41 1   
    39    16    17 1   
    40    16    42 1   
    41    16    43 1   
    42    17    44 1   
    43    17    45 1   
    44    19    21 ar  
    45    20    46 1   
    46    21    47 1   
    47    22    48 1   
    48    23    26 1   
    49    23    49 1   
    50    24    25 ar  
    51    24    26 ar  
    52    25    50 1   
    53    27    51 1   
    54    28    30 1   
    55    29    52 1   
@<TRIPOS>SUBSTRUCTURE
     1 76G         1 TEMP              0 ****  ****    0 ROOT
