@<TRIPOS>MOLECULE
76H
   60    62     1     0     0
SMALL
abcg2


@<TRIPOS>ATOM
      1 C4           3.1360    -0.1900     0.3210 ca         1 76H       0.147500
      2 C5           3.0300    -1.4820     0.8060 ca         1 76H      -0.111600
      3 C6           4.0680    -1.9200     1.6490 ca         1 76H       0.459900
      4 C8           1.3230    -1.1830    -0.3970 cc         1 76H       0.375700
      5 N1           5.0580    -1.0610     1.9190 nb         1 76H      -0.292000
      6 N3           4.1130     0.6750     0.5790 nb         1 76H      -0.233000
      7 C           -2.8040    -3.7950     0.0140 c          1 76H       0.714000
      8 CA          -3.5100    -2.4160     0.1650 c3         1 76H      -0.070700
      9 N           -4.7380    -2.4560    -0.6780 nz         1 76H      -0.975000
     10 CB          -2.6250    -1.2360    -0.1790 c3         1 76H      -0.092400
     11 CAM         -3.2900     0.1230     0.0330 c3         1 76H      -0.115400
     12 CAY         -2.2540     1.2420     0.0040 c3         1 76H       0.125300
     13 NAR         -2.8680     2.5350     0.4620 ny         1 76H      -0.826000
     14 CAK         -3.2390     2.6040     1.9060 c3         1 76H       0.091600
     15 CAJ         -3.6690     4.0060     2.2900 c3         1 76H      -0.103400
     16 CAA         -4.0260     4.0720     3.7680 c3         1 76H      -0.092100
     17 CBB         -0.3830     2.2960    -1.4110 c5         1 76H       0.155300
     18 OAS          0.5740     1.8030    -0.4710 os         1 76H      -0.467000
     19 CAZ          0.3090     2.2440    -2.7680 c5         1 76H       0.116300
     20 OAF          1.0630     3.4140    -2.9340 oh         1 76H      -0.702000
     21 CBA          1.2230     1.0290    -2.5840 c5         1 76H       0.093300
     22 OAG          2.3420     1.0050    -3.4160 oh         1 76H      -0.678000
     23 CBC          1.6630     1.2100    -1.1310 c5         1 76H       0.318300
     24 N9           2.0320    -0.0100    -0.4670 na         1 76H      -0.306300
     25 N7           1.8870    -2.0850     0.3450 nd         1 76H      -0.494100
     26 C2           5.0240     0.1560     1.3840 ca         1 76H       0.197900
     27 N6           4.0930    -3.1380     2.1910 nv         1 76H      -1.049900
     28 H1           0.3930    -1.3240    -0.9280 h5         1 76H       0.050800
     29 H3          -3.8610    -2.3300     1.1960 hx         1 76H       0.088700
     30 H5          -5.5160    -1.9170    -0.3030 hn         1 76H       0.499000
     31 H8          -1.7520    -1.3130     0.4690 hc         1 76H       0.094700
     32 H7          -2.2720    -1.3470    -1.2080 hc         1 76H       0.094700
     33 H9          -4.0550     0.3130    -0.7270 hc         1 76H       0.049200
     34 H10         -3.7950     0.1100     1.0010 hc         1 76H       0.049200
     35 H11         -1.4730     1.0230     0.7360 hx         1 76H       0.134700
     36 H32         -2.2140     3.2970     0.2730 hn         1 76H       0.498500
     37 H15         -4.0380     1.8880     2.0770 hx         1 76H       0.101700
     38 H14         -2.3620     2.2870     2.4690 hx         1 76H       0.101700
     39 H17         -2.8610     4.7100     2.0720 hc         1 76H       0.062700
     40 H16         -4.5280     4.3070     1.6850 hc         1 76H       0.062700
     41 H20         -4.8480     3.3980     4.0100 hc         1 76H       0.061700
     42 H18         -3.1750     3.8000     4.3930 hc         1 76H       0.061700
     43 H19         -4.3310     5.0810     4.0420 hc         1 76H       0.061700
     44 H23         -0.6090     3.3370    -1.1530 h1         1 76H       0.076700
     45 H24         -0.4100     2.1000    -3.5850 h1         1 76H       0.057700
     46 H25          1.7680     3.2290    -3.5660 ho         1 76H       0.544000
     47 H26          0.6250     0.1150    -2.6890 h1         1 76H       0.048700
     48 H27          2.0960     0.6070    -4.2580 ho         1 76H       0.527000
     49 H28          2.5450     1.8580    -1.0840 h2         1 76H       0.140700
     50 H29          5.8550     0.8030     1.6450 h5         1 76H       0.054100
     51 H31          3.4080    -3.8290     1.9400 hn         1 76H       0.514500
     52 H30          4.8830    -3.4300     2.7390 hn         1 76H       0.514500
     53 H6          -4.5690    -2.1380    -1.6320 hn         1 76H       0.499000
     54 H12         -3.6890     2.7470    -0.1100 hn         1 76H       0.498500
     55 OXT         -1.6200    -3.8390     0.3600 o          1 76H      -0.629000
     56 O           -3.5320    -4.7130    -0.4120 o          1 76H      -0.629000
     57 CAN         -1.6470     1.4440    -1.3790 c3         1 76H      -0.135400
     58 H4          -5.0030    -3.4490    -0.7400 hn         1 76H       0.499000
     59 H21         -1.4270     0.4600    -1.7960 hc         1 76H       0.079700
     60 H22         -2.3940     1.8850    -2.0460 hc         1 76H       0.079700
@<TRIPOS>BOND
     1     1     2 ar  
     2     1     6 ar  
     3     1    24 1   
     4     2     3 ar  
     5     2    25 1   
     6     3     5 ar  
     7     3    27 1   
     8     4    24 1   
     9     4    25 2   
    10     4    28 1   
    11     5    26 ar  
    12     6    26 ar  
    13     7     8 1   
    14     7    55 1   
    15     7    56 1   
    16     8     9 1   
    17     8    10 1   
    18     8    29 1   
    19     9    30 1   
    20     9    53 1   
    21     9    58 1   
    22    10    11 1   
    23    10    31 1   
    24    10    32 1   
    25    11    12 1   
    26    11    33 1   
    27    11    34 1   
    28    12    13 1   
    29    12    35 1   
    30    12    57 1   
    31    13    14 1   
    32    13    36 1   
    33    13    54 1   
    34    14    15 1   
    35    14    37 1   
    36    14    38 1   
    37    15    16 1   
    38    15    39 1   
    39    15    40 1   
    40    16    41 1   
    41    16    42 1   
    42    16    43 1   
    43    17    18 1   
    44    17    19 1   
    45    17    44 1   
    46    17    57 1   
    47    18    23 1   
    48    19    20 1   
    49    19    21 1   
    50    19    45 1   
    51    20    46 1   
    52    21    22 1   
    53    21    23 1   
    54    21    47 1   
    55    22    48 1   
    56    23    24 1   
    57    23    49 1   
    58    26    50 1   
    59    27    51 1   
    60    27    52 1   
    61    57    59 1   
    62    57    60 1   
@<TRIPOS>SUBSTRUCTURE
     1 76H         1 TEMP              0 ****  ****    0 ROOT
