@<TRIPOS>MOLECULE
76H
   60    62     1     0     0
SMALL
No Charge or Current Charge


@<TRIPOS>ATOM
      1 C4           1.7270     0.7660     0.7420 ca         1 76H       0.147500
      2 C5           1.6800    -0.5050     1.2520 ca         1 76H      -0.111600
      3 C6           1.7250    -0.6640     2.6500 ca         1 76H       0.459900
      4 C8           1.5970    -0.7520    -0.8820 cc         1 76H       0.375700
      5 N1           1.8230     0.3970     3.4670 nb         1 76H      -0.292000
      6 N3           1.8270     1.8530     1.5320 nb         1 76H      -0.233000
      7 C           -3.4260    -4.1620    -0.7450 c          1 76H       0.714000
      8 CA          -3.7330    -2.7280    -0.1870 c3         1 76H      -0.070700
      9 N           -5.1410    -2.2270    -0.5380 nz         1 76H      -0.975000
     10 CB          -2.6580    -1.7170    -0.6460 c3         1 76H      -0.092400
     11 CAM         -2.7800    -0.3320     0.0370 c3         1 76H      -0.115400
     12 CAY         -1.6080     0.6250    -0.2760 c3         1 76H       0.125300
     13 NAR         -1.7030     1.8910     0.5440 ny         1 76H      -0.826000
     14 CAK         -1.6220     1.7610     2.0580 c3         1 76H       0.091600
     15 CAJ         -1.5170     3.1440     2.7160 c3         1 76H      -0.103400
     16 CAA         -1.4250     3.0610     4.2510 c3         1 76H      -0.092100
     17 CBB         -0.6860     2.2530    -2.1650 c5         1 76H       0.155300
     18 OAS          0.3700     2.5150    -1.2190 os         1 76H      -0.467000
     19 CAZ          0.0750     2.1940    -3.5240 c5         1 76H       0.116300
     20 OAF          0.4700     3.4830    -4.0010 oh         1 76H      -0.702000
     21 CBA          1.3510     1.3840    -3.1220 c5         1 76H       0.093300
     22 OAG          2.4700     1.7930    -3.9410 oh         1 76H      -0.678000
     23 CBC          1.5250     1.7230    -1.5810 c5         1 76H       0.318300
     24 N9           1.6430     0.6230    -0.6140 na         1 76H      -0.306300
     25 N7           1.5990    -1.4750     0.2510 nd         1 76H      -0.494100
     26 C2           1.8730     1.6090     2.8630 ca         1 76H       0.197900
     27 N6           1.6810    -1.8820     3.2490 nv         1 76H      -1.049900
     28 H1           1.5390    -1.1610    -1.8820 h5         1 76H       0.050800
     29 H3          -3.6700    -2.8210     0.9010 hx         1 76H       0.088700
     30 H5          -5.3660    -1.2980    -0.1520 hn         1 76H       0.499000
     31 H8          -1.6670    -2.1340    -0.4190 hc         1 76H       0.094700
     32 H7          -2.7110    -1.6080    -1.7360 hc         1 76H       0.094700
     33 H9          -3.7220     0.1470    -0.2530 hc         1 76H       0.049200
     34 H10         -2.8290    -0.4950     1.1200 hc         1 76H       0.049200
     35 H11         -0.6850     0.1200     0.0270 hx         1 76H       0.134700
     36 H32         -0.9210     2.5070     0.2200 hn         1 76H       0.498500
     37 H15         -2.5130     1.2430     2.4250 hx         1 76H       0.101700
     38 H14         -0.7430     1.1640     2.3180 hx         1 76H       0.101700
     39 H17         -0.6320     3.6640     2.3300 hc         1 76H       0.062700
     40 H16         -2.3920     3.7460     2.4400 hc         1 76H       0.062700
     41 H20         -2.3180     2.5790     4.6690 hc         1 76H       0.061700
     42 H18         -0.5450     2.4820     4.5590 hc         1 76H       0.061700
     43 H19         -1.3430     4.0640     4.6860 hc         1 76H       0.061700
     44 H23         -1.3830     3.1020    -2.1430 h1         1 76H       0.076700
     45 H24         -0.5110     1.6670    -4.2900 h1         1 76H       0.057700
     46 H25          1.4270     3.3340    -4.2240 ho         1 76H       0.544000
     47 H26          1.1490     0.3170    -3.2770 h1         1 76H       0.048700
     48 H27          3.1430     1.0690    -3.9210 ho         1 76H       0.527000
     49 H28          2.4290     2.3300    -1.4390 h2         1 76H       0.140700
     50 H29          1.9530     2.4770     3.5160 h5         1 76H       0.054100
     51 H31          1.8350    -2.6890     2.6500 hn         1 76H       0.514500
     52 H30          2.0130    -1.9590     4.2060 hn         1 76H       0.514500
     53 H6          -5.2970    -2.1620    -1.5570 hn         1 76H       0.499000
     54 H12         -2.5570     2.4220     0.2780 hn         1 76H       0.498500
     55 OXT         -3.7940    -4.4180    -1.8830 o          1 76H      -0.629000
     56 O           -2.9730    -4.9870     0.0330 o          1 76H      -0.629000
     57 CAN         -1.4870     0.9670    -1.7860 c3         1 76H      -0.135400
     58 H4          -5.8880    -2.8560    -0.1990 hn         1 76H       0.499000
     59 H21         -1.0600     0.0950    -2.2940 hc         1 76H       0.079700
     60 H22         -2.4960     1.0740    -2.2020 hc         1 76H       0.079700
@<TRIPOS>BOND
     1     1     2 ar  
     2     1     6 ar  
     3     1    24 1   
     4     2     3 ar  
     5     2    25 1   
     6     3     5 ar  
     7     3    27 1   
     8     4    24 1   
     9     4    25 2   
    10     4    28 1   
    11     5    26 ar  
    12     6    26 ar  
    13     7     8 1   
    14     7    55 1   
    15     7    56 1   
    16     8     9 1   
    17     8    10 1   
    18     8    29 1   
    19     9    30 1   
    20     9    53 1   
    21     9    58 1   
    22    10    11 1   
    23    10    31 1   
    24    10    32 1   
    25    11    12 1   
    26    11    33 1   
    27    11    34 1   
    28    12    13 1   
    29    12    35 1   
    30    12    57 1   
    31    13    14 1   
    32    13    36 1   
    33    13    54 1   
    34    14    15 1   
    35    14    37 1   
    36    14    38 1   
    37    15    16 1   
    38    15    39 1   
    39    15    40 1   
    40    16    41 1   
    41    16    42 1   
    42    16    43 1   
    43    17    18 1   
    44    17    19 1   
    45    17    44 1   
    46    17    57 1   
    47    18    23 1   
    48    19    20 1   
    49    19    21 1   
    50    19    45 1   
    51    20    46 1   
    52    21    22 1   
    53    21    23 1   
    54    21    47 1   
    55    22    48 1   
    56    23    24 1   
    57    23    49 1   
    58    26    50 1   
    59    27    51 1   
    60    27    52 1   
    61    57    59 1   
    62    57    60 1   
@<TRIPOS>SUBSTRUCTURE
     1 76H         1 TEMP              0 ****  ****    0 ROOT
