@<TRIPOS>MOLECULE
76I
   20    19     1     0     0
SMALL
No Charge or Current Charge


@<TRIPOS>ATOM
      1 C8          16.9060   -19.2230   -13.1430 c3         1 76I       0.174500
      2 C10         16.6190   -19.8130   -11.7360 c3         1 76I      -0.090600
      3 C1          15.9520   -16.2230   -12.8510 c          1 76I       0.695000
      4 O2          16.5170   -16.2540   -11.7610 o          1 76I      -0.708500
      5 C3          15.0350   -17.4560   -13.3110 c3         1 76I       0.234500
      6 O6          14.1550   -17.9690   -12.3070 oh         1 76I      -0.712000
      7 N5          15.7130   -18.6720   -13.8690 n3         1 76I      -0.491100
      8 O7          14.7030   -19.7540   -14.0670 oh         1 76I      -0.488300
      9 C9          17.6640   -20.2550   -14.0120 c3         1 76I      -0.090600
     10 H1          17.6160   -18.3990   -12.9900 h1         1 76I       0.081700
     11 H2          16.2300   -19.0490   -11.0540 hc         1 76I       0.025533
     12 H3          15.8960   -20.6360   -11.7860 hc         1 76I       0.025533
     13 H4          17.5420   -20.2030   -11.2910 hc         1 76I       0.025533
     14 H6          14.3940   -17.0660   -14.1110 h2         1 76I       0.056700
     15 H7          14.1260   -18.9090   -12.6090 ho         1 76I       0.471000
     16 H8          14.7080   -19.9240   -15.0390 ho         1 76I       0.423000
     17 H9          18.6090   -20.5390   -13.5340 hc         1 76I       0.025533
     18 H10         17.0710   -21.1650   -14.1610 hc         1 76I       0.025533
     19 H11         17.9000   -19.8310   -14.9960 hc         1 76I       0.025533
     20 O3          16.0550   -15.2670   -13.6140 o          1 76I      -0.708500
@<TRIPOS>BOND
     1     1     2 1   
     2     1     7 1   
     3     1     9 1   
     4     1    10 1   
     5     2    11 1   
     6     2    12 1   
     7     2    13 1   
     8     3     4 1   
     9     3     5 1   
    10     3    20 1   
    11     5     6 1   
    12     5     7 1   
    13     5    14 1   
    14     6    15 1   
    15     7     8 1   
    16     8    16 1   
    17     9    17 1   
    18     9    18 1   
    19     9    19 1   
@<TRIPOS>SUBSTRUCTURE
     1 76I         1 TEMP              0 ****  ****    0 ROOT
