@<TRIPOS>MOLECULE
76I
   20    19     1     0     0
SMALL
abcg2


@<TRIPOS>ATOM
      1 C8          16.8240   -19.2750   -13.1420 c3         1 76I       0.174500
      2 C10         16.4910   -20.1060   -11.9000 c3         1 76I      -0.090600
      3 C1          15.9500   -16.4290   -12.9130 c          1 76I       0.695000
      4 O2          16.0330   -16.1470   -11.6960 o          1 76I      -0.708500
      5 C3          14.9710   -17.6010   -13.2260 c3         1 76I       0.234500
      6 O6          14.2710   -17.9350   -12.0580 oh         1 76I      -0.712000
      7 N5          15.6970   -18.6750   -13.8530 n3         1 76I      -0.491100
      8 O7          14.7870   -19.6800   -14.2380 oh         1 76I      -0.488300
      9 C9          17.6530   -20.1020   -14.1200 c3         1 76I      -0.090600
     10 H1          17.4480   -18.4340   -12.8290 h1         1 76I       0.081700
     11 H2          16.0530   -19.5060   -11.1060 hc         1 76I       0.025533
     12 H3          15.8010   -20.9160   -12.1380 hc         1 76I       0.025533
     13 H4          17.4040   -20.5580   -11.5090 hc         1 76I       0.025533
     14 H6          14.2510   -17.2560   -13.9790 h2         1 76I       0.056700
     15 H7          14.7460   -17.4160   -11.3810 ho         1 76I       0.471000
     16 H8          14.8880   -19.7320   -15.1940 ho         1 76I       0.423000
     17 H9          18.5900   -20.4090   -13.6540 hc         1 76I       0.025533
     18 H10         17.1280   -21.0090   -14.4260 hc         1 76I       0.025533
     19 H11         17.8950   -19.5290   -15.0160 hc         1 76I       0.025533
     20 O3          16.5290   -15.8910   -13.8640 o          1 76I      -0.708500
@<TRIPOS>BOND
     1     1     2 1   
     2     1     7 1   
     3     1     9 1   
     4     1    10 1   
     5     2    11 1   
     6     2    12 1   
     7     2    13 1   
     8     3     4 1   
     9     3     5 1   
    10     3    20 1   
    11     5     6 1   
    12     5     7 1   
    13     5    14 1   
    14     6    15 1   
    15     7     8 1   
    16     8    16 1   
    17     9    17 1   
    18     9    18 1   
    19     9    19 1   
@<TRIPOS>SUBSTRUCTURE
     1 76I         1 TEMP              0 ****  ****    0 ROOT
