@<TRIPOS>MOLECULE
76J
   66    68     1     0     0
SMALL
No Charge or Current Charge


@<TRIPOS>ATOM
      1 C1          -3.8360     5.4340     3.5800 c3         1 76J      -0.092100
      2 C2          -3.5550     4.9100     2.1580 c3         1 76J      -0.073400
      3 C3          -3.1450     3.4220     2.1330 c3         1 76J      -0.071400
      4 C5          -2.4080     1.4340     0.7050 c3         1 76J       0.094600
      5 C7          -1.4510    -0.3790    -0.8860 c3         1 76J       0.121300
      6 C8          -2.3450    -1.5200    -0.3470 c3         1 76J      -0.112400
      7 C10         -2.5550    -4.0430     0.2110 c3         1 76J      -0.072700
      8 C12         -1.8920    -5.4450    -0.0320 c          1 76J       0.721000
      9 C15         -1.0220    -0.5810    -2.3650 c3         1 76J      -0.134400
     10 C16         -0.5610     0.6830    -3.1590 c5         1 76J       0.157300
     11 O17          0.0630     1.6510    -2.2930 os         1 76J      -0.469000
     12 C19          1.8240     0.3780    -3.3620 c5         1 76J       0.093300
     13 C21          0.5310     0.4330    -4.2420 c5         1 76J       0.115300
     14 C24          2.0480    -0.5270    -0.3970 cc         1 76J       0.385700
     15 C26          1.4740     0.5030     1.4020 ca         1 76J      -0.109600
     16 C27          1.1850     0.9040     2.7200 ca         1 76J       0.458900
     17 C4          -2.8590     2.9000     0.7090 c3         1 76J      -0.108400
     18 N6          -2.1190     0.9650    -0.7120 ny         1 76J      -0.826000
     19 C9          -1.6570    -2.9090    -0.3340 c3         1 76J      -0.093400
     20 N11         -2.9300    -3.7920     1.6800 nz         1 76J      -0.978000
     21 O13         -1.0950    -5.8480     0.8050 o          1 76J      -0.632000
     22 O14         -2.3150    -6.1180    -0.9590 o          1 76J      -0.632000
     23 C18          1.4540     1.2920    -2.1180 c5         1 76J       0.318300
     24 O20          2.9560     0.8560    -4.1240 oh         1 76J      -0.679000
     25 O22          0.6480     1.5090    -5.1780 oh         1 76J      -0.704000
     26 N23          1.6170     0.7580    -0.7600 na         1 76J      -0.305300
     27 N25          1.9530    -0.7210     0.9300 nd         1 76J      -0.504100
     28 N28          1.3390     0.0750     3.7860 nv         1 76J      -1.053900
     29 N29          0.7470     2.1430     2.9900 nb         1 76J      -0.294000
     30 C30          0.6040     2.9680     1.9240 ca         1 76J       0.195900
     31 N31          0.8490     2.6650     0.6280 nb         1 76J      -0.233000
     32 C32          1.2860     1.4120     0.3940 ca         1 76J       0.143500
     33 H44         -4.1230     6.4920     3.5490 hc         1 76J       0.045033
     34 H46         -4.6520     4.8710     4.0480 hc         1 76J       0.045033
     35 H45         -2.9440     5.3400     4.2120 hc         1 76J       0.045033
     36 H48         -4.4530     5.0510     1.5430 hc         1 76J       0.046700
     37 H47         -2.7590     5.5150     1.7070 hc         1 76J       0.046700
     38 H50         -2.2520     3.2850     2.7560 hc         1 76J       0.051700
     39 H49         -3.9430     2.8190     2.5840 hc         1 76J       0.051700
     40 H53         -1.4990     1.3300     1.3050 hx         1 76J       0.096700
     41 H54         -3.1870     0.8050     1.1430 hx         1 76J       0.096700
     42 H35         -0.5420    -0.3600    -0.2750 hx         1 76J       0.129700
     43 H55         -2.6440    -1.2730     0.6770 hc         1 76J       0.050700
     44 H56         -3.2660    -1.5740    -0.9400 hc         1 76J       0.050700
     45 H36         -3.4790    -4.0560    -0.3740 hx         1 76J       0.088700
     46 H59         -0.2350    -1.3440    -2.3840 hc         1 76J       0.083700
     47 H60         -1.8620    -1.0250    -2.9140 hc         1 76J       0.083700
     48 H40         -1.4540     1.1460    -3.6020 h1         1 76J       0.074700
     49 H42          1.9930    -0.6620    -3.0580 h1         1 76J       0.054700
     50 H43          0.3640    -0.5160    -4.7700 h1         1 76J       0.058700
     51 H63          2.3860    -1.2650    -1.1130 h5         1 76J       0.066800
     52 H51         -3.7620     3.0030     0.0960 hc         1 76J       0.064200
     53 H52         -2.0790     3.5180     0.2460 hc         1 76J       0.064200
     54 H34         -2.9870     1.0070    -1.2840 hn         1 76J       0.500500
     55 H33         -1.4890     1.6640    -1.1710 hn         1 76J       0.500500
     56 H57         -1.3620    -3.1750    -1.3570 hc         1 76J       0.093700
     57 H58         -0.7320    -2.8580     0.2550 hc         1 76J       0.093700
     58 H38         -3.5610    -4.5150     2.0620 hn         1 76J       0.500333
     59 H39         -2.1090    -3.8070     2.3070 hn         1 76J       0.500333
     60 H37         -3.4060    -2.8940     1.8470 hn         1 76J       0.500333
     61 H41          2.0600     2.2070    -2.1430 h2         1 76J       0.136700
     62 H61          3.7790     0.5120    -3.6970 ho         1 76J       0.528000
     63 H62          1.6290     1.6660    -5.1850 ho         1 76J       0.544000
     64 H64          1.8790    -0.7720     3.6280 hn         1 76J       0.514000
     65 H65          1.4100     0.4910     4.7110 hn         1 76J       0.514000
     66 H66          0.2490     3.9760     2.1310 h5         1 76J       0.053100
@<TRIPOS>BOND
     1     1     2 1   
     2     1    33 1   
     3     1    34 1   
     4     1    35 1   
     5     2     3 1   
     6     2    36 1   
     7     2    37 1   
     8     3    17 1   
     9     3    38 1   
    10     3    39 1   
    11     4    17 1   
    12     4    18 1   
    13     4    40 1   
    14     4    41 1   
    15     5     6 1   
    16     5     9 1   
    17     5    18 1   
    18     5    42 1   
    19     6    19 1   
    20     6    43 1   
    21     6    44 1   
    22     7     8 1   
    23     7    19 1   
    24     7    20 1   
    25     7    45 1   
    26     8    21 1   
    27     8    22 1   
    28     9    10 1   
    29     9    46 1   
    30     9    47 1   
    31    10    11 1   
    32    10    13 1   
    33    10    48 1   
    34    11    23 1   
    35    12    13 1   
    36    12    23 1   
    37    12    24 1   
    38    12    49 1   
    39    13    25 1   
    40    13    50 1   
    41    14    26 1   
    42    14    27 2   
    43    14    51 1   
    44    15    16 ar  
    45    15    27 1   
    46    15    32 ar  
    47    16    28 1   
    48    16    29 ar  
    49    17    52 1   
    50    17    53 1   
    51    18    54 1   
    52    18    55 1   
    53    19    56 1   
    54    19    57 1   
    55    20    58 1   
    56    20    59 1   
    57    20    60 1   
    58    23    26 1   
    59    23    61 1   
    60    24    62 1   
    61    25    63 1   
    62    26    32 1   
    63    28    64 1   
    64    28    65 1   
    65    29    30 ar  
    66    30    31 ar  
    67    30    66 1   
    68    31    32 ar  
@<TRIPOS>SUBSTRUCTURE
     1 76J         1 TEMP              0 ****  ****    0 ROOT
