@<TRIPOS>MOLECULE
76J
   66    68     1     0     0
SMALL
abcg2


@<TRIPOS>ATOM
      1 C1          -6.6780     5.4890     2.5710 c3         1 76J      -0.092100
      2 C2          -5.8500     5.1060     1.3530 c3         1 76J      -0.073400
      3 C3          -5.1760     3.7480     1.5090 c3         1 76J      -0.071400
      4 C5          -3.6940     2.0090     0.4750 c3         1 76J       0.094600
      5 C7          -2.0760     0.4090    -0.6610 c3         1 76J       0.121300
      6 C8          -2.8110    -0.8750    -0.2900 c3         1 76J      -0.112400
      7 C10         -2.3580    -3.2920     0.4380 c3         1 76J      -0.072700
      8 C12         -1.2670    -4.3320     0.8310 c          1 76J       0.721000
      9 C15         -1.3160     0.2680    -1.9780 c3         1 76J      -0.134400
     10 C16         -0.1730     1.2570    -2.1610 c5         1 76J       0.157300
     11 O17          0.7280     1.1770    -1.0510 os         1 76J      -0.469000
     12 C19          1.7200     0.0040    -2.8100 c5         1 76J       0.093300
     13 C21          0.6630     0.9440    -3.3990 c5         1 76J       0.115300
     14 C24          2.0750    -1.4540    -0.0770 cc         1 76J       0.385700
     15 C26          3.6740    -0.9930     1.2230 ca         1 76J      -0.109600
     16 C27          4.6960    -0.9240     2.1880 ca         1 76J       0.458900
     17 C4          -4.3870     3.3420     0.2700 c3         1 76J      -0.108400
     18 N6          -3.0160     1.5710    -0.7800 ny         1 76J      -0.826000
     19 C9          -1.8020    -1.9020     0.2150 c3         1 76J      -0.093400
     20 N11         -3.3990    -3.3200     1.5010 nz         1 76J      -0.978000
     21 O13         -1.6100    -5.1450     1.7120 o          1 76J      -0.632000
     22 O14         -0.2010    -4.2610     0.2130 o          1 76J      -0.632000
     23 C18          1.9720     0.6690    -1.4590 c5         1 76J       0.318300
     24 O20          2.9110    -0.0680    -3.5310 oh         1 76J      -0.679000
     25 O22          1.2500     2.1310    -3.8610 oh         1 76J      -0.704000
     26 N23          2.5060    -0.2050    -0.4510 na         1 76J      -0.305300
     27 N25          2.7480    -1.9560     0.9130 nd         1 76J      -0.504100
     28 N28          4.9410    -1.9080     3.0520 nv         1 76J      -1.053900
     29 N29          5.4410     0.1870     2.2310 nb         1 76J      -0.294000
     30 C30          5.1900     1.1690     1.3690 ca         1 76J       0.195900
     31 N31          4.2690     1.2160     0.4220 nb         1 76J      -0.233000
     32 C32          3.5380     0.1050     0.3920 ca         1 76J       0.143500
     33 H44         -7.1430     6.4670     2.4450 hc         1 76J       0.045033
     34 H46         -7.4750     4.7650     2.7490 hc         1 76J       0.045033
     35 H45         -6.0620     5.5300     3.4710 hc         1 76J       0.045033
     36 H48         -6.4880     5.0920     0.4640 hc         1 76J       0.046700
     37 H47         -5.0880     5.8690     1.1710 hc         1 76J       0.046700
     38 H50         -4.5120     3.7690     2.3780 hc         1 76J       0.051700
     39 H49         -5.9350     2.9870     1.7160 hc         1 76J       0.051700
     40 H53         -2.9280     2.0700     1.2470 hx         1 76J       0.096700
     41 H54         -4.4070     1.2360     0.7500 hx         1 76J       0.096700
     42 H35         -1.3940     0.6760     0.1490 hx         1 76J       0.129700
     43 H55         -3.5590    -0.6830     0.4810 hc         1 76J       0.050700
     44 H56         -3.3450    -1.2600    -1.1640 hc         1 76J       0.050700
     45 H36         -2.8460    -3.6480    -0.4730 hx         1 76J       0.088700
     46 H59         -0.9280    -0.7500    -2.0430 hc         1 76J       0.083700
     47 H60         -2.0140     0.3660    -2.8150 hc         1 76J       0.083700
     48 H40         -0.5560     2.2820    -2.2190 h1         1 76J       0.074700
     49 H42          1.2740    -0.9890    -2.6710 h1         1 76J       0.054700
     50 H43          0.0660     0.4530    -4.1780 h1         1 76J       0.058700
     51 H63          1.2610    -1.9610    -0.5730 h5         1 76J       0.066800
     52 H51         -5.0620     3.2770    -0.5880 hc         1 76J       0.064200
     53 H52         -3.6420     4.1090     0.0360 hc         1 76J       0.064200
     54 H34         -3.7220     1.3710    -1.4910 hn         1 76J       0.500500
     55 H33         -2.4930     2.3690    -1.1470 hn         1 76J       0.500500
     56 H57         -1.0010    -2.0250    -0.5110 hc         1 76J       0.093700
     57 H58         -1.3340    -1.5390     1.1360 hc         1 76J       0.093700
     58 H38         -3.2850    -4.2350     1.9670 hn         1 76J       0.500333
     59 H39         -3.2590    -2.6030     2.2120 hn         1 76J       0.500333
     60 H37         -4.3500    -3.2290     1.1520 hn         1 76J       0.500333
     61 H41          2.7060     1.4730    -1.5710 h2         1 76J       0.136700
     62 H61          2.8150    -0.7260    -4.2270 ho         1 76J       0.528000
     63 H62          2.0370     1.8980    -4.3690 ho         1 76J       0.544000
     64 H64          4.4280    -2.7720     3.0160 hn         1 76J       0.514000
     65 H65          5.7070    -1.8350     3.6990 hn         1 76J       0.514000
     66 H66          5.8280     2.0410     1.4590 h5         1 76J       0.053100
@<TRIPOS>BOND
     1     1     2 1   
     2     1    33 1   
     3     1    34 1   
     4     1    35 1   
     5     2     3 1   
     6     2    36 1   
     7     2    37 1   
     8     3    17 1   
     9     3    38 1   
    10     3    39 1   
    11     4    17 1   
    12     4    18 1   
    13     4    40 1   
    14     4    41 1   
    15     5     6 1   
    16     5     9 1   
    17     5    18 1   
    18     5    42 1   
    19     6    19 1   
    20     6    43 1   
    21     6    44 1   
    22     7     8 1   
    23     7    19 1   
    24     7    20 1   
    25     7    45 1   
    26     8    21 1   
    27     8    22 1   
    28     9    10 1   
    29     9    46 1   
    30     9    47 1   
    31    10    11 1   
    32    10    13 1   
    33    10    48 1   
    34    11    23 1   
    35    12    13 1   
    36    12    23 1   
    37    12    24 1   
    38    12    49 1   
    39    13    25 1   
    40    13    50 1   
    41    14    26 1   
    42    14    27 2   
    43    14    51 1   
    44    15    16 ar  
    45    15    27 1   
    46    15    32 ar  
    47    16    28 1   
    48    16    29 ar  
    49    17    52 1   
    50    17    53 1   
    51    18    54 1   
    52    18    55 1   
    53    19    56 1   
    54    19    57 1   
    55    20    58 1   
    56    20    59 1   
    57    20    60 1   
    58    23    26 1   
    59    23    61 1   
    60    24    62 1   
    61    25    63 1   
    62    26    32 1   
    63    28    64 1   
    64    28    65 1   
    65    29    30 ar  
    66    30    31 ar  
    67    30    66 1   
    68    31    32 ar  
@<TRIPOS>SUBSTRUCTURE
     1 76J         1 TEMP              0 ****  ****    0 ROOT
