@<TRIPOS>MOLECULE
76K
   61    63     1     0     0
SMALL
No Charge or Current Charge


@<TRIPOS>ATOM
      1 C2          -5.0330    -0.5650    -1.9890 ca         1 76K       0.461900
      2 C6          -3.5210     0.4790    -0.4680 ca         1 76K       0.128500
      3 C8          -3.3390    -1.1250     1.0670 cc         1 76K       0.386700
      4 C10         -4.2860    -0.6110    -0.7950 ca         1 76K      -0.105600
      5 C11         -2.0120     1.0200     1.4810 c5         1 76K       0.329300
      6 C13          0.2200     0.6140     2.0880 c5         1 76K       0.151300
      7 C14          1.4700    -0.1780     1.6350 c3         1 76K      -0.120400
      8 C15          2.0480     0.2280     0.2560 c3         1 76K       0.126300
      9 C16          3.4030    -0.4560    -0.0530 c3         1 76K      -0.117400
     10 C25          2.5870     3.8760    -1.1020 c3         1 76K      -0.117400
     11 C26          2.9870     4.5220    -2.4400 c3         1 76K       0.179600
     12 C28         -0.6670    -0.0710     3.1700 c5         1 76K       0.098300
     13 N1          -5.8180    -1.5950    -2.4020 nv         1 76K      -1.051900
     14 N3          -4.9960     0.5120    -2.7900 nb         1 76K      -0.292000
     15 C4          -4.2110     1.5360    -2.3750 ca         1 76K       0.198900
     16 N5          -3.4640     1.5780    -1.2450 nb         1 76K      -0.240000
     17 N7          -2.9180     0.1620     0.7150 na         1 76K      -0.331300
     18 N9          -4.1870    -1.6320     0.1540 nd         1 76K      -0.514100
     19 O12         -0.6720     0.7950     0.9750 os         1 76K      -0.463000
     20 C17          3.3450    -2.0030    -0.1080 c3         1 76K      -0.089400
     21 C18          4.6480    -2.6490    -0.6300 c3         1 76K      -0.069700
     22 N19          5.8330    -2.3150     0.2890 nz         1 76K      -0.975000
     23 C20          4.4540    -4.1900    -0.8610 c          1 76K       0.718000
     24 O21          4.3080    -4.5750    -2.0110 o          1 76K      -0.630500
     25 O22          4.6050    -4.9310     0.1000 o          1 76K      -0.630500
     26 N23          2.1880     1.7390     0.1730 ny         1 76K      -0.826000
     27 O27          2.9640     5.9460    -2.3040 oh         1 76K      -0.648000
     28 O29         -0.1240     0.0120     4.5030 oh         1 76K      -0.719000
     29 C30         -1.9480     0.8000     3.0420 c5         1 76K       0.111300
     30 O31         -1.7480     2.0120     3.7880 oh         1 76K      -0.699000
     31 H46         -3.0050    -1.6260     1.9670 h5         1 76K       0.052800
     32 H32         -2.3260     2.0510     1.2740 h2         1 76K       0.136700
     33 H33          0.5410     1.6090     2.4290 h1         1 76K       0.059700
     34 H47          2.2510    -0.0780     2.3990 hc         1 76K       0.090200
     35 H48          1.2130    -1.2430     1.5980 hc         1 76K       0.090200
     36 H34          1.3250    -0.0790    -0.5090 hx         1 76K       0.128700
     37 H49          3.7660    -0.1030    -1.0250 hc         1 76K       0.047700
     38 H50          4.1410    -0.1390     0.6940 hc         1 76K       0.047700
     39 H54          1.8840     2.0060    -1.9370 hx         1 76K       0.102200
     40 H53          3.5890     1.9890    -1.4400 hx         1 76K       0.102200
     41 H55          1.5870     4.2260    -0.8190 hc         1 76K       0.077200
     42 H56          3.2820     4.2060    -0.3210 hc         1 76K       0.077200
     43 H57          3.9920     4.1800    -2.7220 h1         1 76K       0.031200
     44 H58          2.2870     4.2010    -3.2230 h1         1 76K       0.031200
     45 H41         -0.8790    -1.1150     2.8950 h1         1 76K       0.069700
     46 H43         -5.6810    -2.4870    -1.9330 hn         1 76K       0.515500
     47 H44         -6.0820    -1.6350    -3.3830 hn         1 76K       0.515500
     48 H45         -4.1750     2.4150    -3.0160 h5         1 76K       0.056100
     49 H52          3.1190    -2.4100     0.8860 hc         1 76K       0.096700
     50 H51          2.5190    -2.3030    -0.7660 hc         1 76K       0.096700
     51 H35          4.8630    -2.2320    -1.6180 hx         1 76K       0.086700
     52 H36          5.9870    -1.3050     0.4260 hn         1 76K       0.499000
     53 H37          5.7310    -2.7230     1.2330 hn         1 76K       0.499000
     54 H38          6.7310    -2.6880    -0.0600 hn         1 76K       0.499000
     55 H39          1.2740     2.1540     0.4500 hn         1 76K       0.501000
     56 H40          2.8400     2.0690     0.9140 hn         1 76K       0.501000
     57 H59          3.2240     6.3220    -3.1760 ho         1 76K       0.473000
     58 H60          0.5120    -0.7370     4.6180 ho         1 76K       0.539000
     59 H42         -2.8360     0.2660     3.4110 h1         1 76K       0.107700
     60 H61         -1.0890     1.7340     4.4760 ho         1 76K       0.528000
     61 C24          2.5890     2.3420    -1.1700 c3         1 76K       0.091600
@<TRIPOS>BOND
     1     1     4 ar  
     2     1    13 1   
     3     1    14 ar  
     4     2     4 ar  
     5     2    16 ar  
     6     2    17 1   
     7     3    17 1   
     8     3    18 2   
     9     3    31 1   
    10     4    18 1   
    11     5    17 1   
    12     5    19 1   
    13     5    29 1   
    14     5    32 1   
    15     6     7 1   
    16     6    12 1   
    17     6    19 1   
    18     6    33 1   
    19     7     8 1   
    20     7    34 1   
    21     7    35 1   
    22     8     9 1   
    23     8    26 1   
    24     8    36 1   
    25     9    20 1   
    26     9    37 1   
    27     9    38 1   
    28    10    11 1   
    29    10    41 1   
    30    10    42 1   
    31    10    61 1   
    32    11    27 1   
    33    11    43 1   
    34    11    44 1   
    35    12    28 1   
    36    12    29 1   
    37    12    45 1   
    38    13    46 1   
    39    13    47 1   
    40    14    15 ar  
    41    15    16 ar  
    42    15    48 1   
    43    20    21 1   
    44    20    49 1   
    45    20    50 1   
    46    21    22 1   
    47    21    23 1   
    48    21    51 1   
    49    22    52 1   
    50    22    53 1   
    51    22    54 1   
    52    23    24 1   
    53    23    25 1   
    54    26    55 1   
    55    26    56 1   
    56    26    61 1   
    57    27    57 1   
    58    28    58 1   
    59    29    30 1   
    60    29    59 1   
    61    30    60 1   
    62    39    61 1   
    63    40    61 1   
@<TRIPOS>SUBSTRUCTURE
     1 76K         1 TEMP              0 ****  ****    0 ROOT
