@<TRIPOS>MOLECULE
76K
   61    63     1     0     0
SMALL
abcg2


@<TRIPOS>ATOM
      1 C2          -4.9980    -2.3360    -0.9880 ca         1 76K       0.461900
      2 C6          -3.8110    -0.3970    -0.3080 ca         1 76K       0.128500
      3 C8          -1.7550    -1.0560    -0.6410 cc         1 76K       0.386700
      4 C10         -3.7600    -1.6940    -0.7930 ca         1 76K      -0.105600
      5 C11         -2.0630     1.3220     0.2250 c5         1 76K       0.329300
      6 C13         -0.0250     1.3940     1.3530 c5         1 76K       0.151300
      7 C14          1.1640     0.4520     1.3310 c3         1 76K      -0.120400
      8 C15          2.2100     0.7480     0.2630 c3         1 76K       0.126300
      9 C16          3.2700    -0.3430     0.1610 c3         1 76K      -0.117400
     10 C25          4.0830     4.0800    -0.2090 c3         1 76K      -0.117400
     11 C26          4.7210     4.7550    -1.4110 c3         1 76K       0.179600
     12 C28         -1.1040     0.9870     2.3550 c5         1 76K       0.098300
     13 N1          -5.0980    -3.5840    -1.4440 nv         1 76K      -1.051900
     14 N3          -6.1100    -1.6510    -0.6990 nb         1 76K      -0.292000
     15 C4          -6.0050    -0.4050    -0.2440 ca         1 76K       0.198900
     16 N5          -4.9090     0.2990    -0.0170 nb         1 76K      -0.240000
     17 N7          -2.5090    -0.0010    -0.2030 na         1 76K      -0.331300
     18 N9          -2.4640    -2.0870    -0.9960 nd         1 76K      -0.514100
     19 O12         -0.6760     1.4000     0.0840 os         1 76K      -0.463000
     20 C17          2.6880    -1.6550    -0.3610 c3         1 76K      -0.089400
     21 C18          3.7450    -2.6340    -0.8300 c3         1 76K      -0.069700
     22 N19          4.6330    -3.0630     0.2870 nz         1 76K      -0.975000
     23 C20          3.1750    -3.9230    -1.4900 c          1 76K       0.718000
     24 O21          2.1940    -3.7670    -2.2230 o          1 76K      -0.630500
     25 O22          3.8050    -4.9680    -1.2350 o          1 76K      -0.630500
     26 N23          2.8780     2.0630     0.5620 ny         1 76K      -0.826000
     27 O27          5.1870     6.0210    -1.0080 oh         1 76K      -0.648000
     28 O29         -0.8150     1.5240     3.6120 oh         1 76K      -0.719000
     29 C30         -2.3660     1.5630     1.7030 c5         1 76K       0.111300
     30 O31         -2.4450     2.9480     1.8930 oh         1 76K      -0.699000
     31 H46         -0.6800    -1.0060    -0.6960 h5         1 76K       0.052800
     32 H32         -2.5500     2.0620    -0.4150 h2         1 76K       0.136700
     33 H33          0.2920     2.4190     1.5910 h1         1 76K       0.059700
     34 H47          1.6330     0.4580     2.3190 hc         1 76K       0.090200
     35 H48          0.8020    -0.5670     1.1760 hc         1 76K       0.090200
     36 H34          1.7310     0.8810    -0.7100 hx         1 76K       0.128700
     37 H49          4.0620    -0.0190    -0.5200 hc         1 76K       0.047700
     38 H50          3.7330    -0.4810     1.1430 hc         1 76K       0.047700
     39 H54          2.7900     2.8000    -1.3820 hx         1 76K       0.102200
     40 H53          4.3350     2.0620    -0.9460 hx         1 76K       0.102200
     41 H55          3.2710     4.7060     0.1720 hc         1 76K       0.077200
     42 H56          4.8230     3.9730     0.5880 hc         1 76K       0.077200
     43 H57          5.5350     4.1250    -1.7900 h1         1 76K       0.031200
     44 H58          3.9790     4.8350    -2.2160 h1         1 76K       0.031200
     45 H41         -1.1850    -0.1070     2.3910 h1         1 76K       0.069700
     46 H43         -4.2800    -4.1220    -1.6710 hn         1 76K       0.515500
     47 H44         -6.0000    -4.0070    -1.5780 hn         1 76K       0.515500
     48 H45         -6.9450     0.0940    -0.0330 h5         1 76K       0.056100
     49 H52          2.0650    -2.1360     0.3980 hc         1 76K       0.096700
     50 H51          2.0420    -1.4570    -1.2170 hc         1 76K       0.096700
     51 H35          4.4000    -2.1500    -1.5600 hx         1 76K       0.086700
     52 H36          5.4280    -2.4490     0.4470 hn         1 76K       0.499000
     53 H37          4.1310    -3.1600     1.1690 hn         1 76K       0.499000
     54 H38          4.9700    -4.0030     0.0360 hn         1 76K       0.499000
     55 H39          2.1890     2.7170     0.9390 hn         1 76K       0.501000
     56 H40          3.5540     1.9350     1.3190 hn         1 76K       0.501000
     57 H59          5.5530     6.4630    -1.7800 ho         1 76K       0.473000
     58 H60         -1.3060     1.0360     4.2810 ho         1 76K       0.539000
     59 H42         -3.2790     1.0510     2.0260 h1         1 76K       0.107700
     60 H61         -2.1880     3.1370     2.8030 ho         1 76K       0.528000
     61 C24          3.5410     2.7200    -0.5980 c3         1 76K       0.091600
@<TRIPOS>BOND
     1     1     4 ar  
     2     1    13 1   
     3     1    14 ar  
     4     2     4 ar  
     5     2    16 ar  
     6     2    17 1   
     7     3    17 1   
     8     3    18 2   
     9     3    31 1   
    10     4    18 1   
    11     5    17 1   
    12     5    19 1   
    13     5    29 1   
    14     5    32 1   
    15     6     7 1   
    16     6    12 1   
    17     6    19 1   
    18     6    33 1   
    19     7     8 1   
    20     7    34 1   
    21     7    35 1   
    22     8     9 1   
    23     8    26 1   
    24     8    36 1   
    25     9    20 1   
    26     9    37 1   
    27     9    38 1   
    28    10    11 1   
    29    10    41 1   
    30    10    42 1   
    31    10    61 1   
    32    11    27 1   
    33    11    43 1   
    34    11    44 1   
    35    12    28 1   
    36    12    29 1   
    37    12    45 1   
    38    13    46 1   
    39    13    47 1   
    40    14    15 ar  
    41    15    16 ar  
    42    15    48 1   
    43    20    21 1   
    44    20    49 1   
    45    20    50 1   
    46    21    22 1   
    47    21    23 1   
    48    21    51 1   
    49    22    52 1   
    50    22    53 1   
    51    22    54 1   
    52    23    24 1   
    53    23    25 1   
    54    26    55 1   
    55    26    56 1   
    56    26    61 1   
    57    27    57 1   
    58    28    58 1   
    59    29    30 1   
    60    29    59 1   
    61    30    60 1   
    62    39    61 1   
    63    40    61 1   
@<TRIPOS>SUBSTRUCTURE
     1 76K         1 TEMP              0 ****  ****    0 ROOT
