@<TRIPOS>MOLECULE
76L
   61    63     1     0     0
SMALL
bcc


@<TRIPOS>ATOM
      1 C1           4.2450     4.2120    -3.0600 c3         1 76L      -0.130100
      2 C2           3.8450     3.9230    -1.6260 c3         1 76L       0.125100
      3 C6           2.2370     0.9310     0.1620 c3         1 76L       0.153500
      4 C7           3.2220    -0.2280     0.0460 c3         1 76L      -0.115400
      5 C8           2.5030    -1.5720     0.1200 c3         1 76L      -0.091400
      6 C11          2.5870    -4.1030    -0.3200 c          1 76L       0.925600
      7 C14          1.5590     1.0020     1.5260 c3         1 76L      -0.133400
      8 C15          0.3400     1.9140     1.5850 c5         1 76L       0.131100
      9 C23         -1.5030    -1.2670     0.0460 cc         1 76L       0.378700
     10 C25         -3.3650    -1.4550    -0.9290 ca         1 76L      -0.240200
     11 C26         -4.5130    -1.8090    -1.6620 ca         1 76L       0.787200
     12 C31         -3.4070    -0.2370    -0.2720 ca         1 76L       0.476800
     13 O3           2.8190     4.7720    -1.1540 oh         1 76L      -0.596800
     14 C4           3.4260     2.4640    -1.4760 c3         1 76L       0.075800
     15 N5           2.9490     2.2280    -0.0870 ny         1 76L      -0.770000
     16 C9           3.3580    -2.7500    -0.2980 c3         1 76L      -0.044500
     17 N10          4.5350    -2.9310     0.5960 nz         1 76L      -0.840600
     18 O16         -0.5990     1.5440     0.5700 os         1 76L      -0.421600
     19 C17         -1.7560     0.9950     1.1420 c5         1 76L       0.266800
     20 C18         -1.3830     0.6520     2.5850 c5         1 76L       0.068100
     21 O19         -2.5330     0.6220     3.3730 oh         1 76L      -0.554800
     22 C20         -0.4080     1.7890     2.9080 c5         1 76L       0.094100
     23 O21         -1.1020     2.9840     3.1460 oh         1 76L      -0.580800
     24 N22         -2.1990    -0.1270     0.3590 na         1 76L      -0.277000
     25 N24         -2.1630    -2.0820    -0.7180 nd         1 76L      -0.499100
     26 N28         -5.5410    -0.9520    -1.6650 nb         1 76L      -0.818000
     27 C29         -5.4380     0.1870    -0.9860 ca         1 76L       0.724900
     28 N30         -4.4190     0.6260    -0.2680 nb         1 76L      -0.758000
     29 H45          3.4100     4.0470    -3.7450 hc         1 76L       0.071033
     30 H46          4.5730     5.2460    -3.1610 hc         1 76L       0.071033
     31 H44          5.0660     3.5680    -3.3730 hc         1 76L       0.071033
     32 H32          4.7020     4.1060    -0.9720 h1         1 76L       0.090700
     33 H35          1.4920     0.8480    -0.6310 hx         1 76L       0.131700
     34 H50          3.7430    -0.1700    -0.9120 hc         1 76L       0.047700
     35 H51          3.9810    -0.1380     0.8300 hc         1 76L       0.047700
     36 H52          2.1140    -1.7600     1.1250 hc         1 76L       0.094700
     37 H53          1.6490    -1.5630    -0.5580 hc         1 76L       0.094700
     38 H54          1.2620    -0.0090     1.8080 hc         1 76L       0.080200
     39 H55          2.2850     1.3180     2.2810 hc         1 76L       0.080200
     40 H40          0.6260     2.9600     1.4240 h1         1 76L       0.080700
     41 H47          2.1170     4.8130    -1.8140 ho         1 76L       0.434000
     42 H49          2.6000     2.2180    -2.1460 hx         1 76L       0.104200
     43 H48          4.2560     1.7930    -1.6800 hx         1 76L       0.104200
     44 H33          2.3330     3.0140     0.1430 hn         1 76L       0.452800
     45 H36          3.7650    -2.5800    -1.2980 hx         1 76L       0.088700
     46 H37          4.3430    -2.6620     1.5610 hn         1 76L       0.444133
     47 H39          4.7220    -3.9450     0.6010 hn         1 76L       0.444133
     48 H41         -2.5830     1.7120     1.1310 h2         1 76L       0.138700
     49 H42         -0.8470    -0.3050     2.6190 h1         1 76L       0.050700
     50 H56         -2.3470     0.1280     4.1780 ho         1 76L       0.428000
     51 H43          0.2670     1.5360     3.7350 h1         1 76L       0.057700
     52 H57         -1.8400     2.7900     3.7370 ho         1 76L       0.445000
     53 H60         -3.8260    -3.5710    -2.4280 hn         1 76L       0.458300
     54 H59         -5.4240    -3.1350    -2.9040 hn         1 76L       0.458300
     55 H61         -6.3050     0.8370    -1.0320 h5         1 76L       0.055100
     56 H34          3.7350     2.3100     0.5630 hn         1 76L       0.452800
     57 H38          5.3680    -2.4300     0.2930 hn         1 76L       0.444133
     58 O12          3.2400    -5.0860     0.0840 o          1 76L      -0.733300
     59 N27         -4.6170    -2.9580    -2.3320 nv         1 76L      -0.938500
     60 O13          1.4350    -4.0640    -0.7600 o          1 76L      -0.733300
     61 H58         -0.5030    -1.4490     0.4100 h5         1 76L       0.048800
@<TRIPOS>BOND
     1     1     2 1   
     2     1    29 1   
     3     1    30 1   
     4     1    31 1   
     5     2    13 1   
     6     2    14 1   
     7     2    32 1   
     8     3     4 1   
     9     3     7 1   
    10     3    15 1   
    11     3    33 1   
    12     4     5 1   
    13     4    34 1   
    14     4    35 1   
    15     5    16 1   
    16     5    36 1   
    17     5    37 1   
    18     6    16 1   
    19     6    58 1   
    20     6    60 1   
    21     7     8 1   
    22     7    38 1   
    23     7    39 1   
    24     8    18 1   
    25     8    22 1   
    26     8    40 1   
    27     9    24 1   
    28     9    25 2   
    29     9    61 1   
    30    10    11 ar  
    31    10    12 ar  
    32    10    25 1   
    33    11    26 ar  
    34    11    59 1   
    35    12    24 1   
    36    12    28 ar  
    37    13    41 1   
    38    14    15 1   
    39    14    42 1   
    40    14    43 1   
    41    15    44 1   
    42    15    56 1   
    43    16    17 1   
    44    16    45 1   
    45    17    46 1   
    46    17    47 1   
    47    17    57 1   
    48    18    19 1   
    49    19    20 1   
    50    19    24 1   
    51    19    48 1   
    52    20    21 1   
    53    20    22 1   
    54    20    49 1   
    55    21    50 1   
    56    22    23 1   
    57    22    51 1   
    58    23    52 1   
    59    26    27 ar  
    60    27    28 ar  
    61    27    55 1   
    62    53    59 1   
    63    54    59 1   
@<TRIPOS>SUBSTRUCTURE
     1 76L         1 TEMP              0 ****  ****    0 ROOT
