@<TRIPOS>MOLECULE
76L
   61    63     1     0     0
SMALL
No Charge or Current Charge


@<TRIPOS>ATOM
      1 C1           1.5730     3.5490    -3.6760 c3         1 76L      -0.130100
      2 C2           1.8580     3.3380    -2.1790 c3         1 76L       0.148300
      3 C6           1.5790     0.3550     0.3670 c3         1 76L       0.125300
      4 C7           2.5920    -0.7060    -0.1170 c3         1 76L      -0.115400
      5 C8           2.2450    -2.1490     0.3230 c3         1 76L      -0.091400
      6 C11          2.6200    -4.6660    -0.0050 c          1 76L       0.715000
      7 C14          1.5020     0.4730     1.9110 c3         1 76L      -0.133400
      8 C15          0.8390     1.7690     2.4720 c5         1 76L       0.154300
      9 C23         -1.6950    -0.8940     1.0040 cc         1 76L       0.378700
     10 C25         -1.8740    -0.4530    -1.0920 ca         1 76L      -0.109600
     11 C26         -2.0050    -0.4850    -2.4930 ca         1 76L       0.458900
     12 C31         -1.7880     0.7690    -0.4760 ca         1 76L       0.148500
     13 O3           0.9480     4.1370    -1.4100 oh         1 76L      -0.659000
     14 C4           1.7090     1.8610    -1.7570 c3         1 76L       0.047600
     15 N5           1.8760     1.7030    -0.2450 ny         1 76L      -0.824000
     16 C9           3.1570    -3.2230    -0.3120 c3         1 76L      -0.072700
     17 N10          4.6200    -3.0160     0.1050 nz         1 76L      -0.978000
     18 O16         -0.2150     2.2290     1.6030 os         1 76L      -0.468000
     19 C17         -1.4240     1.4970     1.9160 c5         1 76L       0.319300
     20 C18         -1.2540     1.0070     3.4160 c5         1 76L       0.091300
     21 O19         -2.2970     1.4700     4.3040 oh         1 76L      -0.677000
     22 C20          0.1190     1.6240     3.8460 c5         1 76L       0.117300
     23 O21         -0.1180     2.8810     4.4860 oh         1 76L      -0.703000
     24 N22         -1.6500     0.5000     0.8590 na         1 76L      -0.306300
     25 N24         -1.8130    -1.5110    -0.1840 nd         1 76L      -0.499100
     26 N28         -2.0460     0.6470    -3.2130 nb         1 76L      -0.292000
     27 C29         -1.9640     1.8020    -2.5090 ca         1 76L       0.198900
     28 N30         -1.8320     1.9250    -1.1670 nb         1 76L      -0.232000
     29 H45          0.5580     3.2270    -3.9380 hc         1 76L       0.071033
     30 H46          1.6820     4.6070    -3.9440 hc         1 76L       0.071033
     31 H44          2.2810     2.9720    -4.2840 hc         1 76L       0.071033
     32 H32          2.8940     3.6490    -1.9770 h1         1 76L       0.090700
     33 H35          0.5910     0.0530     0.0050 hx         1 76L       0.131700
     34 H50          2.6310    -0.6870    -1.2130 hc         1 76L       0.047700
     35 H51          3.5930    -0.4350     0.2400 hc         1 76L       0.047700
     36 H52          2.2970    -2.2360     1.4160 hc         1 76L       0.094700
     37 H53          1.2060    -2.3630     0.0400 hc         1 76L       0.094700
     38 H54          0.9820    -0.4120     2.2960 hc         1 76L       0.080200
     39 H55          2.5180     0.4120     2.3210 hc         1 76L       0.080200
     40 H40          1.6120     2.5500     2.5180 h1         1 76L       0.080700
     41 H47          0.0490     4.0090    -1.7820 ho         1 76L       0.473000
     42 H49          0.7170     1.4990    -2.0430 hx         1 76L       0.104200
     43 H48          2.4590     1.2540    -2.2730 hx         1 76L       0.104200
     44 H33          1.2260     2.3940     0.2020 hn         1 76L       0.508000
     45 H36          3.0990    -3.1190    -1.4000 hx         1 76L       0.088700
     46 H37          4.7670    -3.1520     1.1190 hn         1 76L       0.499333
     47 H39          5.2660    -3.6860    -0.3440 hn         1 76L       0.499333
     48 H41         -2.2790     2.1830     1.8490 h2         1 76L       0.138700
     49 H42         -1.1770    -0.0850     3.4760 h1         1 76L       0.050700
     50 H56         -3.0540     0.8370     4.2410 ho         1 76L       0.527000
     51 H43          0.6700     0.9510     4.5190 h1         1 76L       0.057700
     52 H57         -1.0840     2.8120     4.7090 ho         1 76L       0.544000
     53 H60         -1.8550    -2.5010    -2.6970 hn         1 76L       0.513500
     54 H59         -1.9010    -1.6270    -4.1910 hn         1 76L       0.513500
     55 H61         -2.0030     2.7260    -3.0830 h5         1 76L       0.055100
     56 H34          2.8160     2.0360     0.0530 hn         1 76L       0.508000
     57 H38          4.9930    -2.0810    -0.1180 hn         1 76L       0.499333
     58 O12          2.9210    -5.1640     1.0710 o          1 76L      -0.628000
     59 N27         -2.0930    -1.6460    -3.1930 nv         1 76L      -1.048900
     60 O13          2.0600    -5.2660    -0.9090 o          1 76L      -0.628000
     61 H58         -1.6160    -1.3960     1.9590 h5         1 76L       0.048800
@<TRIPOS>BOND
     1     1     2 1   
     2     1    29 1   
     3     1    30 1   
     4     1    31 1   
     5     2    13 1   
     6     2    14 1   
     7     2    32 1   
     8     3     4 1   
     9     3     7 1   
    10     3    15 1   
    11     3    33 1   
    12     4     5 1   
    13     4    34 1   
    14     4    35 1   
    15     5    16 1   
    16     5    36 1   
    17     5    37 1   
    18     6    16 1   
    19     6    58 1   
    20     6    60 1   
    21     7     8 1   
    22     7    38 1   
    23     7    39 1   
    24     8    18 1   
    25     8    22 1   
    26     8    40 1   
    27     9    24 1   
    28     9    25 2   
    29     9    61 1   
    30    10    11 ar  
    31    10    12 ar  
    32    10    25 1   
    33    11    26 ar  
    34    11    59 1   
    35    12    24 1   
    36    12    28 ar  
    37    13    41 1   
    38    14    15 1   
    39    14    42 1   
    40    14    43 1   
    41    15    44 1   
    42    15    56 1   
    43    16    17 1   
    44    16    45 1   
    45    17    46 1   
    46    17    47 1   
    47    17    57 1   
    48    18    19 1   
    49    19    20 1   
    50    19    24 1   
    51    19    48 1   
    52    20    21 1   
    53    20    22 1   
    54    20    49 1   
    55    21    50 1   
    56    22    23 1   
    57    22    51 1   
    58    23    52 1   
    59    26    27 ar  
    60    27    28 ar  
    61    27    55 1   
    62    53    59 1   
    63    54    59 1   
@<TRIPOS>SUBSTRUCTURE
     1 76L         1 TEMP              0 ****  ****    0 ROOT
