@<TRIPOS>MOLECULE
76M
   63    65     1     0     0
SMALL
No Charge or Current Charge


@<TRIPOS>ATOM
      1 C1           1.8720     3.3590    -3.8150 c3         1 76M      -0.103600
      2 C2           1.9450     3.2960    -2.2750 c3         1 76M      -0.085700
      3 C3           0.9960     4.3360    -1.6300 c3         1 76M      -0.103600
      4 C6           1.5790     0.3930     0.3600 c3         1 76M       0.125300
      5 C7           2.6320    -0.6380    -0.1050 c3         1 76M      -0.115400
      6 C8           2.3470    -2.0820     0.3760 c3         1 76M      -0.092400
      7 C11          2.8220    -4.5890     0.1110 c          1 76M       0.715000
      8 C14          1.5000     0.5350     1.9040 c3         1 76M      -0.135400
      9 C15          0.8240     1.8300     2.4520 c5         1 76M       0.155300
     10 C23         -1.6810    -0.8670     0.9960 cc         1 76M       0.380700
     11 C25         -1.8340    -0.4330    -1.1030 ca         1 76M      -0.107600
     12 C26         -1.9410    -0.4690    -2.5070 ca         1 76M       0.456900
     13 C31         -1.7780     0.7900    -0.4890 ca         1 76M       0.146500
     14 C4           1.6810     1.8580    -1.7840 c3         1 76M       0.093600
     15 N5           1.8210     1.7440    -0.2710 ny         1 76M      -0.827000
     16 C9           3.2960    -3.1340    -0.2400 c3         1 76M      -0.072700
     17 N10          4.7530    -2.8570     0.1580 nz         1 76M      -0.976000
     18 O16         -0.2340     2.2730     1.5810 os         1 76M      -0.466000
     19 C17         -1.4360     1.5310     1.8990 c5         1 76M       0.319300
     20 C18         -1.2590     1.0500     3.4020 c5         1 76M       0.091300
     21 O19         -2.3080     1.5040     4.2870 oh         1 76M      -0.677000
     22 C20          0.1050     1.6880     3.8280 c5         1 76M       0.115300
     23 O21         -0.1480     2.9480     4.4560 oh         1 76M      -0.705000
     24 N22         -1.6510     0.5270     0.8470 na         1 76M      -0.305300
     25 N24         -1.7720    -1.4880    -0.1920 nd         1 76M      -0.500100
     26 N28         -1.9850     0.6620    -3.2290 nb         1 76M      -0.291000
     27 C29         -1.9320     1.8190    -2.5260 ca         1 76M       0.197900
     28 N30         -1.8290     1.9440    -1.1810 nb         1 76M      -0.232000
     29 H44          0.8660     3.1040    -4.1710 hc         1 76M       0.058700
     30 H43          2.1180     4.3650    -4.1760 hc         1 76M       0.058700
     31 H45          2.5830     2.6560    -4.2670 hc         1 76M       0.058700
     32 H46          2.9700     3.5610    -1.9860 hc         1 76M       0.059700
     33 H49         -0.0520     4.1080    -1.8590 hc         1 76M       0.058700
     34 H48          1.1130     4.3650    -0.5410 hc         1 76M       0.058700
     35 H47          1.2120     5.3410    -2.0100 hc         1 76M       0.058700
     36 H34          0.6030     0.0470     0.0060 hx         1 76M       0.133700
     37 H52          2.6620    -0.6480    -1.2000 hc         1 76M       0.049200
     38 H53          3.6230    -0.3170     0.2370 hc         1 76M       0.049200
     39 H55          2.4110    -2.1380     1.4700 hc         1 76M       0.094200
     40 H54          1.3150    -2.3450     0.1080 hc         1 76M       0.094200
     41 H56          0.9940    -0.3520     2.3010 hc         1 76M       0.080200
     42 H57          2.5170     0.4920     2.3130 hc         1 76M       0.080200
     43 H39          1.5890     2.6180     2.4920 h1         1 76M       0.074700
     44 H51          0.6730     1.5490    -2.0730 hx         1 76M       0.099700
     45 H50          2.3970     1.1810    -2.2590 hx         1 76M       0.099700
     46 H32          1.1340     2.3970     0.1700 hn         1 76M       0.499000
     47 H33          2.7480     2.1120     0.0280 hn         1 76M       0.499000
     48 H35          3.2250    -3.0620    -1.3290 hx         1 76M       0.089700
     49 H36          4.9140    -2.9580     1.1730 hn         1 76M       0.499000
     50 H38          5.4220    -3.5120    -0.2790 hn         1 76M       0.499000
     51 H37          5.0860    -1.9140    -0.0940 hn         1 76M       0.499000
     52 H40         -2.2970     2.2080     1.8300 h2         1 76M       0.137700
     53 H41         -1.1670    -0.0410     3.4660 h1         1 76M       0.051700
     54 H58         -3.0570     0.8600     4.2280 ho         1 76M       0.526000
     55 H42          0.6640     1.0280     4.5070 h1         1 76M       0.057700
     56 H59         -1.1130     2.8680     4.6810 ho         1 76M       0.545000
     57 H62         -1.7590    -2.4840    -2.7060 hn         1 76M       0.511500
     58 H61         -1.7920    -1.6120    -4.2020 hn         1 76M       0.511500
     59 H63         -1.9710     2.7420    -3.1010 h5         1 76M       0.054100
     60 O12          3.1550    -5.0470     1.1940 o          1 76M      -0.629000
     61 N27         -1.9990    -1.6320    -3.2070 nv         1 76M      -1.046900
     62 O13          2.2770    -5.2340    -0.7710 o          1 76M      -0.629000
     63 H60         -1.6080    -1.3640     1.9540 h5         1 76M       0.050800
@<TRIPOS>BOND
     1     1     2 1   
     2     1    29 1   
     3     1    30 1   
     4     1    31 1   
     5     2     3 1   
     6     2    14 1   
     7     2    32 1   
     8     3    33 1   
     9     3    34 1   
    10     3    35 1   
    11     4     5 1   
    12     4     8 1   
    13     4    15 1   
    14     4    36 1   
    15     5     6 1   
    16     5    37 1   
    17     5    38 1   
    18     6    16 1   
    19     6    39 1   
    20     6    40 1   
    21     7    16 1   
    22     7    60 1   
    23     7    62 1   
    24     8     9 1   
    25     8    41 1   
    26     8    42 1   
    27     9    18 1   
    28     9    22 1   
    29     9    43 1   
    30    10    24 1   
    31    10    25 2   
    32    10    63 1   
    33    11    12 ar  
    34    11    13 ar  
    35    11    25 1   
    36    12    26 ar  
    37    12    61 1   
    38    13    24 1   
    39    13    28 ar  
    40    14    15 1   
    41    14    44 1   
    42    14    45 1   
    43    15    46 1   
    44    15    47 1   
    45    16    17 1   
    46    16    48 1   
    47    17    49 1   
    48    17    50 1   
    49    17    51 1   
    50    18    19 1   
    51    19    20 1   
    52    19    24 1   
    53    19    52 1   
    54    20    21 1   
    55    20    22 1   
    56    20    53 1   
    57    21    54 1   
    58    22    23 1   
    59    22    55 1   
    60    23    56 1   
    61    26    27 ar  
    62    27    28 ar  
    63    27    59 1   
    64    57    61 1   
    65    58    61 1   
@<TRIPOS>SUBSTRUCTURE
     1 76M         1 TEMP              0 ****  ****    0 ROOT
