@<TRIPOS>MOLECULE
76M
   63    65     1     0     0
SMALL
bcc


@<TRIPOS>ATOM
      1 C1           4.6370     4.0470    -3.0450 c3         1 76M      -0.103600
      2 C2           3.9800     3.9500    -1.6720 c3         1 76M      -0.085700
      3 C3           2.9260     5.0400    -1.5010 c3         1 76M      -0.103600
      4 C6           2.1970     1.0080     0.1170 c3         1 76M       0.153500
      5 C7           3.2080    -0.1320     0.0310 c3         1 76M      -0.115400
      6 C8           2.5110    -1.4880     0.1220 c3         1 76M      -0.092400
      7 C11          2.6250    -4.0210    -0.3000 c          1 76M       0.925600
      8 C14          1.5040     1.0760     1.4730 c3         1 76M      -0.135400
      9 C15          0.2570     1.9490     1.5160 c5         1 76M       0.132100
     10 C23         -1.5320    -1.2930     0.0230 cc         1 76M       0.380700
     11 C25         -3.4240    -1.5540    -0.8740 ca         1 76M      -0.238200
     12 C26         -4.5880    -1.9540    -1.5560 ca         1 76M       0.785200
     13 C31         -3.4770    -0.3250    -0.2370 ca         1 76M       0.474800
     14 C4           3.4000     2.5500    -1.5160 c3         1 76M       0.121800
     15 N5           2.8780     2.3240    -0.1360 ny         1 76M      -0.773000
     16 C9           3.3750    -2.6560    -0.3050 c3         1 76M      -0.044500
     17 N10          4.5750    -2.8100     0.5630 nz         1 76M      -0.838600
     18 O16         -0.6720     1.5280     0.5130 os         1 76M      -0.419600
     19 C17         -1.8180     0.9730     1.1030 c5         1 76M       0.266800
     20 C18         -1.4290     0.6640     2.5480 c5         1 76M       0.068100
     21 O19         -2.5730     0.6170     3.3440 oh         1 76M      -0.554800
     22 C20         -0.4810     1.8290     2.8460 c5         1 76M       0.092100
     23 O21         -1.2030     3.0110     3.0680 oh         1 76M      -0.582800
     24 N22         -2.2490    -0.1690     0.3430 na         1 76M      -0.276000
     25 N24         -2.1970    -2.1400    -0.7010 nd         1 76M      -0.500100
     26 N28         -5.6400    -1.1280    -1.5350 nb         1 76M      -0.817000
     27 C29         -5.5460     0.0260    -0.8790 ca         1 76M       0.723900
     28 N30         -4.5140     0.5070    -0.2080 nb         1 76M      -0.758000
     29 H44          3.9020     3.9160    -3.8410 hc         1 76M       0.058700
     30 H43          5.0970     5.0270    -3.1750 hc         1 76M       0.058700
     31 H45          5.4150     3.2940    -3.1740 hc         1 76M       0.058700
     32 H46          4.7560     4.0820    -0.9100 hc         1 76M       0.059700
     33 H49          2.1250     4.9240    -2.2330 hc         1 76M       0.058700
     34 H48          2.4750     5.0590    -0.5060 hc         1 76M       0.058700
     35 H47          3.3740     6.0220    -1.6500 hc         1 76M       0.058700
     36 H34          1.4650     0.8980    -0.6860 hx         1 76M       0.133700
     37 H52          3.7380    -0.0840    -0.9220 hc         1 76M       0.049200
     38 H53          3.9560    -0.0150     0.8210 hc         1 76M       0.049200
     39 H55          2.1380    -1.6750     1.1330 hc         1 76M       0.094200
     40 H54          1.6480    -1.4940    -0.5440 hc         1 76M       0.094200
     41 H56          1.2360     0.0600     1.7680 hc         1 76M       0.080200
     42 H57          2.2140     1.4240     2.2290 hc         1 76M       0.080200
     43 H39          0.5070     3.0000     1.3340 h1         1 76M       0.074700
     44 H51          2.5670     2.3840    -2.2010 hx         1 76M       0.099700
     45 H50          4.1610     1.7970    -1.7020 hx         1 76M       0.099700
     46 H32          2.2220     3.0760     0.0810 hn         1 76M       0.443800
     47 H33          3.6420     2.4410     0.5340 hn         1 76M       0.443800
     48 H35          3.7570    -2.4870    -1.3150 hx         1 76M       0.089700
     49 H36          4.3970    -2.5520     1.5330 hn         1 76M       0.443800
     50 H38          4.7910    -3.8180     0.5580 hn         1 76M       0.443800
     51 H37          5.3870    -2.2850     0.2460 hn         1 76M       0.443800
     52 H40         -2.6550     1.6790     1.0850 h2         1 76M       0.137700
     53 H41         -0.8690    -0.2790     2.5940 h1         1 76M       0.051700
     54 H58         -2.3700     0.1450     4.1570 ho         1 76M       0.427000
     55 H42          0.2050     1.6080     3.6730 h1         1 76M       0.057700
     56 H59         -1.9340     2.8100     3.6640 ho         1 76M       0.446000
     57 H62         -3.8730    -3.6970    -2.3330 hn         1 76M       0.456300
     58 H61         -5.4960    -3.3160    -2.7580 hn         1 76M       0.456300
     59 H63         -6.4330     0.6490    -0.9020 h5         1 76M       0.054100
     60 O12          3.3100    -4.9930     0.0750 o          1 76M      -0.734300
     61 N27         -4.6840    -3.1200    -2.1980 nv         1 76M      -0.936500
     62 O13          1.4550    -3.9990    -0.6930 o          1 76M      -0.734300
     63 H60         -0.5130    -1.4380     0.3480 h5         1 76M       0.050800
@<TRIPOS>BOND
     1     1     2 1   
     2     1    29 1   
     3     1    30 1   
     4     1    31 1   
     5     2     3 1   
     6     2    14 1   
     7     2    32 1   
     8     3    33 1   
     9     3    34 1   
    10     3    35 1   
    11     4     5 1   
    12     4     8 1   
    13     4    15 1   
    14     4    36 1   
    15     5     6 1   
    16     5    37 1   
    17     5    38 1   
    18     6    16 1   
    19     6    39 1   
    20     6    40 1   
    21     7    16 1   
    22     7    60 1   
    23     7    62 1   
    24     8     9 1   
    25     8    41 1   
    26     8    42 1   
    27     9    18 1   
    28     9    22 1   
    29     9    43 1   
    30    10    24 1   
    31    10    25 2   
    32    10    63 1   
    33    11    12 ar  
    34    11    13 ar  
    35    11    25 1   
    36    12    26 ar  
    37    12    61 1   
    38    13    24 1   
    39    13    28 ar  
    40    14    15 1   
    41    14    44 1   
    42    14    45 1   
    43    15    46 1   
    44    15    47 1   
    45    16    17 1   
    46    16    48 1   
    47    17    49 1   
    48    17    50 1   
    49    17    51 1   
    50    18    19 1   
    51    19    20 1   
    52    19    24 1   
    53    19    52 1   
    54    20    21 1   
    55    20    22 1   
    56    20    53 1   
    57    21    54 1   
    58    22    23 1   
    59    22    55 1   
    60    23    56 1   
    61    26    27 ar  
    62    27    28 ar  
    63    27    59 1   
    64    57    61 1   
    65    58    61 1   
@<TRIPOS>SUBSTRUCTURE
     1 76M         1 TEMP              0 ****  ****    0 ROOT
