@<TRIPOS>MOLECULE
76O
   64    67     1     0     0
SMALL
bcc


@<TRIPOS>ATOM
      1 C2           5.1280     1.3500     0.6860 ca         1 76O       0.788200
      2 C6           3.5470    -0.1560    -0.2380 ca         1 76O       0.466800
      3 C8           2.6090    -0.9140     1.5890 cc         1 76O       0.378700
      4 C10          4.0970     0.4150     0.8960 ca         1 76O      -0.242200
      5 C11          1.6900    -1.7760    -0.6050 c5         1 76O       0.263800
      6 C13         -0.6100    -2.0860    -0.2200 c5         1 76O       0.135100
      7 C14         -1.7120    -1.3750     0.5420 c3         1 76O      -0.111400
      8 C15         -2.2440    -0.1350    -0.1730 c3         1 76O       0.155500
      9 C16         -3.5800     0.3630     0.3590 c3         1 76O      -0.115400
     10 C25         -0.1150     2.9890    -0.8090 ca         1 76O      -0.187300
     11 C26          1.1570     2.6800    -1.2850 ca         1 76O      -0.099500
     12 C27          2.2270     3.5210    -1.0140 ca         1 76O      -0.117000
     13 C28          2.0320     4.6780    -0.2710 ca         1 76O      -0.077000
     14 C31          0.1280    -3.1590     0.5730 c5         1 76O       0.079100
     15 N1           5.7460     1.9800     1.6830 nv         1 76O      -0.939500
     16 N3           5.4900     1.6070    -0.5770 nb         1 76O      -0.818000
     17 C4           4.8660     0.9820    -1.5720 ca         1 76O       0.720900
     18 N5           3.8890     0.0940    -1.4990 nb         1 76O      -0.759000
     19 N7           2.5920    -1.0220     0.2210 na         1 76O      -0.284000
     20 N9           3.4940    -0.0730     2.0280 nd         1 76O      -0.521100
     21 O12          0.4170    -1.1580    -0.5720 os         1 76O      -0.483600
     22 C17         -4.7100    -0.6250     0.0780 c3         1 76O      -0.089400
     23 C18         -6.0890    -0.0180     0.2470 c3         1 76O      -0.040500
     24 N19         -6.3320     0.4230     1.6500 nz         1 76O      -0.840600
     25 C20         -7.2540    -0.9710    -0.1460 c          1 76O       0.928600
     26 O21         -7.0940    -1.6190    -1.1850 o          1 76O      -0.737800
     27 O22         -8.2390    -0.9480     0.6180 o          1 76O      -0.737800
     28 N23         -1.2100     0.9520    -0.0380 ny         1 76O      -0.787000
     29 C29          0.7650     4.9940     0.2000 ca         1 76O      -0.117000
     30 C30         -0.3050     4.1500    -0.0660 ca         1 76O      -0.099500
     31 O32         -0.5900    -4.3560     0.5500 oh         1 76O      -0.575800
     32 C33          1.4750    -3.2290    -0.1670 c5         1 76O       0.088100
     33 O34          1.3590    -4.0010    -1.3290 oh         1 76O      -0.571800
     34 H49          1.9440    -1.4900     2.2150 h5         1 76O       0.058800
     35 H35          2.1000    -1.7400    -1.6160 h2         1 76O       0.147700
     36 H36         -1.0300    -2.5230    -1.1350 h1         1 76O       0.102700
     37 H51         -2.5270    -2.0900     0.6630 hc         1 76O       0.086700
     38 H50         -1.3850    -1.1060     1.5510 hc         1 76O       0.086700
     39 H37         -2.3310    -0.3280    -1.2460 hx         1 76O       0.117700
     40 H52         -3.4870     0.5620     1.4310 hc         1 76O       0.047700
     41 H53         -3.8250     1.3150    -0.1210 hc         1 76O       0.047700
     42 H56         -2.2200     2.5530    -0.9560 hx         1 76O       0.097200
     43 H57         -1.2080     1.5780    -2.0270 hx         1 76O       0.097200
     44 H58          1.3160     1.7850    -1.8770 ha         1 76O       0.139500
     45 H59          3.2130     3.2780    -1.3850 ha         1 76O       0.156500
     46 H60          2.8670     5.3350    -0.0640 ha         1 76O       0.157000
     47 H44          0.2900    -2.8070     1.6010 h1         1 76O       0.047700
     48 H47          5.5050     1.7990     2.6420 hn         1 76O       0.461300
     49 H46          6.4910     2.6270     1.4920 hn         1 76O       0.461300
     50 H48          5.2050     1.2380    -2.5700 h5         1 76O       0.061100
     51 H54         -4.6460    -0.9730    -0.9530 hc         1 76O       0.094700
     52 H55         -4.6250    -1.5100     0.7150 hc         1 76O       0.094700
     53 H38         -6.1740     0.8810    -0.3690 hx         1 76O       0.087700
     54 H39         -5.8540    -0.1600     2.3360 hn         1 76O       0.443467
     55 H41         -6.0770     1.3910     1.8320 hn         1 76O       0.443467
     56 H40         -7.3440     0.2970     1.8070 hn         1 76O       0.443467
     57 H43         -1.2550     1.3510     0.9020 hn         1 76O       0.456300
     58 H42         -0.2920     0.4960    -0.1110 hn         1 76O       0.456300
     59 H61          0.6070     5.8970     0.7750 ha         1 76O       0.156500
     60 H62         -1.2930     4.3990     0.3010 ha         1 76O       0.139500
     61 H63         -0.2850    -4.9180     1.2700 ho         1 76O       0.437000
     62 H45          2.2910    -3.5840     0.4740 h1         1 76O       0.087700
     63 H64          0.7890    -4.7540    -1.1250 ho         1 76O       0.439000
     64 C24         -1.2600     2.0510    -1.0470 c3         1 76O       0.193100
@<TRIPOS>BOND
     1     1     4 ar  
     2     1    15 1   
     3     1    16 ar  
     4     2     4 ar  
     5     2    18 ar  
     6     2    19 1   
     7     3    19 1   
     8     3    20 2   
     9     3    34 1   
    10     4    20 1   
    11     5    19 1   
    12     5    21 1   
    13     5    32 1   
    14     5    35 1   
    15     6     7 1   
    16     6    14 1   
    17     6    21 1   
    18     6    36 1   
    19     7     8 1   
    20     7    37 1   
    21     7    38 1   
    22     8     9 1   
    23     8    28 1   
    24     8    39 1   
    25     9    22 1   
    26     9    40 1   
    27     9    41 1   
    28    10    11 ar  
    29    10    30 ar  
    30    10    64 1   
    31    11    12 ar  
    32    11    44 1   
    33    12    13 ar  
    34    12    45 1   
    35    13    29 ar  
    36    13    46 1   
    37    14    31 1   
    38    14    32 1   
    39    14    47 1   
    40    15    48 1   
    41    15    49 1   
    42    16    17 ar  
    43    17    18 ar  
    44    17    50 1   
    45    22    23 1   
    46    22    51 1   
    47    22    52 1   
    48    23    24 1   
    49    23    25 1   
    50    23    53 1   
    51    24    54 1   
    52    24    55 1   
    53    24    56 1   
    54    25    26 1   
    55    25    27 1   
    56    28    57 1   
    57    28    58 1   
    58    28    64 1   
    59    29    30 ar  
    60    29    59 1   
    61    30    60 1   
    62    31    61 1   
    63    32    33 1   
    64    32    62 1   
    65    33    63 1   
    66    42    64 1   
    67    43    64 1   
@<TRIPOS>SUBSTRUCTURE
     1 76O         1 TEMP              0 ****  ****    0 ROOT
