@<TRIPOS>MOLECULE
76O
   64    67     1     0     0
SMALL
No Charge or Current Charge


@<TRIPOS>ATOM
      1 C2           5.4720     1.2890     0.6050 ca         1 76O       0.459900
      2 C6           3.7040    -0.0850    -0.2150 ca         1 76O       0.138500
      3 C8           3.0110    -1.0110     1.6900 cc         1 76O       0.378700
      4 C10          4.4370     0.3660     0.8530 ca         1 76O      -0.111600
      5 C11          1.8010    -1.7270    -0.4320 c5         1 76O       0.316300
      6 C13         -0.5010    -2.0420    -0.1660 c5         1 76O       0.158300
      7 C14         -1.7930    -1.4190     0.4260 c3         1 76O      -0.111400
      8 C15         -2.3370    -0.1920    -0.3450 c3         1 76O       0.127300
      9 C16         -3.6990     0.3210     0.1780 c3         1 76O      -0.115400
     10 C25         -0.2520     3.0030    -0.8710 ca         1 76O      -0.187300
     11 C26          1.0810     2.7040    -1.2140 ca         1 76O      -0.081500
     12 C27          2.1150     3.5840    -0.8520 ca         1 76O      -0.099000
     13 C28          1.8230     4.7640    -0.1460 ca         1 76O      -0.059000
     14 C31          0.1830    -3.1240     0.7220 c5         1 76O       0.102300
     15 N1           6.2560     1.7910     1.5950 nv         1 76O      -1.049900
     16 N3           5.7460     1.7080    -0.6410 nb         1 76O      -0.292000
     17 C4           4.9680     1.1950    -1.6260 ca         1 76O       0.194900
     18 N5           3.9500     0.3130    -1.4780 nb         1 76O      -0.233000
     19 N7           2.7920    -0.9550     0.3100 na         1 76O      -0.313300
     20 N9           4.0210    -0.2030     2.0610 nd         1 76O      -0.521100
     21 O12          0.5320    -1.0450    -0.2880 os         1 76O      -0.530000
     22 C17         -4.8830    -0.6520    -0.0510 c3         1 76O      -0.089400
     23 C18         -6.2610    -0.0310     0.2710 c3         1 76O      -0.068700
     24 N19         -6.3460     0.3760     1.7500 nz         1 76O      -0.978000
     25 C20         -7.4230    -0.9840    -0.1810 c          1 76O       0.718000
     26 O21         -8.0150    -0.7040    -1.2130 o          1 76O      -0.632500
     27 O22         -7.7670    -1.8660     0.5930 o          1 76O      -0.632500
     28 N23         -1.3170     0.9160    -0.2420 ny         1 76O      -0.841000
     29 C29          0.4940     5.0630     0.1980 ca         1 76O      -0.099000
     30 C30         -0.5420     4.1840    -0.1620 ca         1 76O      -0.081500
     31 O32         -0.4890    -4.3980     0.7120 oh         1 76O      -0.698000
     32 C33          1.5630    -3.2220     0.0100 c5         1 76O       0.111300
     33 O34          1.4300    -4.1270    -1.0970 oh         1 76O      -0.694000
     34 H49          2.4190    -1.6350     2.3490 h5         1 76O       0.058800
     35 H35          2.1220    -1.7120    -1.4820 h2         1 76O       0.147700
     36 H36         -0.7260    -2.4390    -1.1670 h1         1 76O       0.102700
     37 H51         -2.5610    -2.2000     0.4440 hc         1 76O       0.086700
     38 H50         -1.6240    -1.1360     1.4720 hc         1 76O       0.086700
     39 H37         -2.4450    -0.4650    -1.4000 hx         1 76O       0.117700
     40 H52         -3.6090     0.5510     1.2460 hc         1 76O       0.047700
     41 H53         -3.9360     1.2650    -0.3290 hc         1 76O       0.047700
     42 H56         -2.3400     2.5400    -1.1840 hx         1 76O       0.097200
     43 H57         -1.2290     1.6500    -2.2480 hx         1 76O       0.097200
     44 H58          1.3160     1.7910    -1.7570 ha         1 76O       0.121500
     45 H59          3.1440     3.3550    -1.1190 ha         1 76O       0.138500
     46 H60          2.6250     5.4440     0.1330 ha         1 76O       0.139000
     47 H44          0.3070    -2.7580     1.7510 h1         1 76O       0.047700
     48 H47          6.2120     1.3160     2.4930 hn         1 76O       0.516500
     49 H46          7.1550     2.1910     1.3390 hn         1 76O       0.516500
     50 H48          5.1810     1.5280    -2.6400 h5         1 76O       0.061100
     51 H54         -4.8810    -0.9680    -1.1030 hc         1 76O       0.094700
     52 H55         -4.7520    -1.5600     0.5500 hc         1 76O       0.094700
     53 H38         -6.3760     0.8740    -0.3320 hx         1 76O       0.087700
     54 H39         -6.2980    -0.4350     2.3880 hn         1 76O       0.498667
     55 H41         -5.6040     1.0250     2.0510 hn         1 76O       0.498667
     56 H40         -7.2360     0.8430     1.9880 hn         1 76O       0.498667
     57 H43         -1.3100     1.3090     0.7180 hn         1 76O       0.511500
     58 H42         -0.3730     0.4650    -0.3050 hn         1 76O       0.511500
     59 H61          0.2670     5.9750     0.7460 ha         1 76O       0.138500
     60 H62         -1.5680     4.4210     0.1120 ha         1 76O       0.121500
     61 H63         -1.1580    -4.3910     1.4400 ho         1 76O       0.536000
     62 H45          2.3450    -3.5710     0.6990 h1         1 76O       0.087700
     63 H64          0.6710    -4.7010    -0.8110 ho         1 76O       0.538000
     64 C24         -1.3650     2.0480    -1.2380 c3         1 76O       0.164900
@<TRIPOS>BOND
     1     1     4 ar  
     2     1    15 1   
     3     1    16 ar  
     4     2     4 ar  
     5     2    18 ar  
     6     2    19 1   
     7     3    19 1   
     8     3    20 2   
     9     3    34 1   
    10     4    20 1   
    11     5    19 1   
    12     5    21 1   
    13     5    32 1   
    14     5    35 1   
    15     6     7 1   
    16     6    14 1   
    17     6    21 1   
    18     6    36 1   
    19     7     8 1   
    20     7    37 1   
    21     7    38 1   
    22     8     9 1   
    23     8    28 1   
    24     8    39 1   
    25     9    22 1   
    26     9    40 1   
    27     9    41 1   
    28    10    11 ar  
    29    10    30 ar  
    30    10    64 1   
    31    11    12 ar  
    32    11    44 1   
    33    12    13 ar  
    34    12    45 1   
    35    13    29 ar  
    36    13    46 1   
    37    14    31 1   
    38    14    32 1   
    39    14    47 1   
    40    15    48 1   
    41    15    49 1   
    42    16    17 ar  
    43    17    18 ar  
    44    17    50 1   
    45    22    23 1   
    46    22    51 1   
    47    22    52 1   
    48    23    24 1   
    49    23    25 1   
    50    23    53 1   
    51    24    54 1   
    52    24    55 1   
    53    24    56 1   
    54    25    26 1   
    55    25    27 1   
    56    28    57 1   
    57    28    58 1   
    58    28    64 1   
    59    29    30 ar  
    60    29    59 1   
    61    30    60 1   
    62    31    61 1   
    63    32    33 1   
    64    32    62 1   
    65    33    63 1   
    66    42    64 1   
    67    43    64 1   
@<TRIPOS>SUBSTRUCTURE
     1 76O         1 TEMP              0 ****  ****    0 ROOT
