@<TRIPOS>MOLECULE
76P
   43    45     1     0     0
SMALL
abcg2


@<TRIPOS>ATOM
      1 N01         31.1650     5.2490    -8.2710 nb         1 76P      -0.197000
      2 C02         30.3470     5.5940    -7.3080 ca         1 76P       0.186900
      3 N03         29.8230     6.8170    -7.0640 nb         1 76P      -0.290000
      4 C04         30.1610     7.7870    -7.8810 ca         1 76P       0.403300
      5 C05         31.0400     7.5620    -8.9920 ca         1 76P      -0.180000
      6 C06         31.5260     6.2380    -9.1390 ca         1 76P       0.076000
      7 C07         31.4160     8.5620    -9.8960 ca         1 76P       0.031000
      8 C08         32.2670     8.2290   -10.9230 ca         1 76P      -0.195200
      9 C09         32.7690     6.9260   -11.0930 ca         1 76P      -0.031000
     10 C10         32.3990     5.9460   -10.2110 ca         1 76P      -0.106000
     11 O11         29.7040     9.0160    -7.7280 os         1 76P      -0.466300
     12 N12         32.6660     9.2690   -11.8730 no         1 76P       0.677200
     13 C13         28.8080     9.3290    -6.6150 c6         1 76P       0.183300
     14 C14         29.6080     9.5510    -5.3420 c6         1 76P      -0.087900
     15 C15         28.6800     9.9890    -4.2070 c6         1 76P      -0.085400
     16 C16         27.8960    11.2480    -4.5820 c6         1 76P       0.180500
     17 C17         27.1120    11.0140    -5.8850 c6         1 76P      -0.085400
     18 C18         28.0390    10.5730    -7.0200 c6         1 76P      -0.087900
     19 N19         27.0980    11.7430    -3.4490 n3         1 76P      -0.728600
     20 C20         26.7210    13.1410    -3.5930 c3         1 76P       0.156100
     21 C21         25.9410    10.9270    -3.1040 c3         1 76P       0.156100
     22 O22         33.4740     8.9720   -12.7440 o          1 76P      -0.395500
     23 O23         32.1760    10.3850   -11.7550 o          1 76P      -0.395500
     24 H1          30.0480     4.8160    -6.6130 h5         1 76P       0.055100
     25 H2          31.0480     9.5700    -9.7890 ha         1 76P       0.166000
     26 H3          33.4340     6.7140   -11.9160 ha         1 76P       0.156000
     27 H4          32.7650     4.9340   -10.3200 ha         1 76P       0.149000
     28 H5          28.1300     8.4850    -6.4920 h1         1 76P       0.074700
     29 H6          30.1380     8.6380    -5.0690 hc         1 76P       0.058200
     30 H7          30.3570    10.3260    -5.5340 hc         1 76P       0.058200
     31 H8          27.9900     9.1730    -3.9760 hc         1 76P       0.051450
     32 H9          29.2620    10.1820    -3.3030 hc         1 76P       0.051450
     33 H10         28.6320    12.0350    -4.7820 h1         1 76P       0.056700
     34 H11         26.5860    11.9240    -6.1810 hc         1 76P       0.051450
     35 H12         26.3520    10.2440    -5.7220 hc         1 76P       0.051450
     36 H13         28.7540    11.3690    -7.2500 hc         1 76P       0.058200
     37 H14         27.4660    10.3720    -7.9280 hc         1 76P       0.058200
     38 H16         26.2690    13.4910    -2.6620 h1         1 76P       0.031033
     39 H17         27.6070    13.7450    -3.7930 h1         1 76P       0.031033
     40 H18         25.9940    13.3200    -4.4020 h1         1 76P       0.031033
     41 H19         25.5340    11.2710    -2.1520 h1         1 76P       0.031033
     42 H20         25.1320    10.9810    -3.8500 h1         1 76P       0.031033
     43 H21         26.2270     9.8820    -2.9900 h1         1 76P       0.031033
@<TRIPOS>BOND
     1     1     2 ar  
     2     1     6 ar  
     3     2     3 ar  
     4     2    24 1   
     5     3     4 ar  
     6     4     5 ar  
     7     4    11 1   
     8     5     6 ar  
     9     5     7 ar  
    10     6    10 ar  
    11     7     8 ar  
    12     7    25 1   
    13     8     9 ar  
    14     8    12 1   
    15     9    10 ar  
    16     9    26 1   
    17    10    27 1   
    18    11    13 1   
    19    12    22 1   
    20    12    23 1   
    21    13    14 1   
    22    13    18 1   
    23    13    28 1   
    24    14    15 1   
    25    14    29 1   
    26    14    30 1   
    27    15    16 1   
    28    15    31 1   
    29    15    32 1   
    30    16    17 1   
    31    16    19 1   
    32    16    33 1   
    33    17    18 1   
    34    17    34 1   
    35    17    35 1   
    36    18    36 1   
    37    18    37 1   
    38    19    20 1   
    39    19    21 1   
    40    20    38 1   
    41    20    39 1   
    42    20    40 1   
    43    21    41 1   
    44    21    42 1   
    45    21    43 1   
@<TRIPOS>SUBSTRUCTURE
     1 76P         1 TEMP              0 ****  ****    0 ROOT
