@<TRIPOS>MOLECULE
76P
   43    45     1     0     0
SMALL
No Charge or Current Charge


@<TRIPOS>ATOM
      1 N01         31.1700     5.1850    -8.3030 nb         1 76P      -0.197000
      2 C02         30.2170     5.4720    -7.3950 ca         1 76P       0.186900
      3 N03         29.6100     6.6600    -7.2180 nb         1 76P      -0.290000
      4 C04         29.9980     7.6710    -8.0250 ca         1 76P       0.403300
      5 C05         30.9850     7.4670    -9.0170 ca         1 76P      -0.180000
      6 C06         31.5620     6.1800    -9.1240 ca         1 76P       0.076000
      7 C07         31.3950     8.5070    -9.8790 ca         1 76P       0.031000
      8 C08         32.3870     8.2720   -10.8570 ca         1 76P      -0.195200
      9 C09         32.9620     6.9840   -10.9600 ca         1 76P      -0.031000
     10 C10         32.5480     5.9540   -10.0980 ca         1 76P      -0.106000
     11 O11         29.4090     8.9190    -7.9240 os         1 76P      -0.466300
     12 N12         32.8240     9.3730   -11.7720 no         1 76P       0.677200
     13 C13         28.6240     9.2830    -6.7670 c6         1 76P       0.183300
     14 C14         29.5360     9.5090    -5.5280 c6         1 76P      -0.087900
     15 C15         28.7140     9.9850    -4.3040 c6         1 76P      -0.085400
     16 C16         27.9260    11.2870    -4.6250 c6         1 76P       0.180500
     17 C17         27.0070    11.0590    -5.8640 c6         1 76P      -0.085400
     18 C18         27.8280    10.5730    -7.0870 c6         1 76P      -0.087900
     19 N19         27.2040    11.8260    -3.4290 n3         1 76P      -0.728600
     20 C20         26.7380    13.2230    -3.5980 c3         1 76P       0.156100
     21 C21         26.1480    10.9500    -2.8590 c3         1 76P       0.156100
     22 O22         33.6950     9.1240   -12.6150 o          1 76P      -0.395500
     23 O23         32.2940    10.4850   -11.6450 o          1 76P      -0.395500
     24 H1          29.9050     4.6610    -6.7400 h5         1 76P       0.055100
     25 H2          30.9430     9.4940    -9.7860 ha         1 76P       0.166000
     26 H3          33.7280     6.7710   -11.7030 ha         1 76P       0.156000
     27 H4          32.9990     4.9680   -10.1900 ha         1 76P       0.149000
     28 H5          27.9000     8.4830    -6.5510 h1         1 76P       0.074700
     29 H6          30.0660     8.5820    -5.2690 hc         1 76P       0.058200
     30 H7          30.3090    10.2520    -5.7680 hc         1 76P       0.058200
     31 H8          28.0300     9.1800    -4.0050 hc         1 76P       0.051450
     32 H9          29.3870    10.1590    -3.4530 hc         1 76P       0.051450
     33 H10         28.6800    12.0330    -4.9230 h1         1 76P       0.056700
     34 H11         26.4860    11.9870    -6.1320 hc         1 76P       0.051450
     35 H12         26.2310    10.3180    -5.6330 hc         1 76P       0.051450
     36 H13         28.5190    11.3650    -7.4060 hc         1 76P       0.058200
     37 H14         27.1530    10.3870    -7.9330 hc         1 76P       0.058200
     38 H16         26.3850    13.6300    -2.6420 h1         1 76P       0.031033
     39 H17         27.5530    13.8660    -3.9570 h1         1 76P       0.031033
     40 H18         25.9090    13.2820    -4.3170 h1         1 76P       0.031033
     41 H19         25.7380    11.3930    -1.9420 h1         1 76P       0.031033
     42 H20         25.3180    10.8160    -3.5660 h1         1 76P       0.031033
     43 H21         26.5420     9.9620    -2.5930 h1         1 76P       0.031033
@<TRIPOS>BOND
     1     1     2 ar  
     2     1     6 ar  
     3     2     3 ar  
     4     2    24 1   
     5     3     4 ar  
     6     4     5 ar  
     7     4    11 1   
     8     5     6 ar  
     9     5     7 ar  
    10     6    10 ar  
    11     7     8 ar  
    12     7    25 1   
    13     8     9 ar  
    14     8    12 1   
    15     9    10 ar  
    16     9    26 1   
    17    10    27 1   
    18    11    13 1   
    19    12    22 1   
    20    12    23 1   
    21    13    14 1   
    22    13    18 1   
    23    13    28 1   
    24    14    15 1   
    25    14    29 1   
    26    14    30 1   
    27    15    16 1   
    28    15    31 1   
    29    15    32 1   
    30    16    17 1   
    31    16    19 1   
    32    16    33 1   
    33    17    18 1   
    34    17    34 1   
    35    17    35 1   
    36    18    36 1   
    37    18    37 1   
    38    19    20 1   
    39    19    21 1   
    40    20    38 1   
    41    20    39 1   
    42    20    40 1   
    43    21    41 1   
    44    21    42 1   
    45    21    43 1   
@<TRIPOS>SUBSTRUCTURE
     1 76P         1 TEMP              0 ****  ****    0 ROOT
