@<TRIPOS>MOLECULE
76Q
   60    63     1     0     0
SMALL
No Charge or Current Charge


@<TRIPOS>ATOM
      1 N01         -0.1760    -3.6560     0.1390 nb         1 76Q      -0.661000
      2 C02         -1.4390    -3.2240    -0.0540 ca         1 76Q       0.367900
      3 C03         -1.7820    -1.8820    -0.3190 cp         1 76Q      -0.094000
      4 C04         -0.7320    -0.9250    -0.4040 ca         1 76Q      -0.007300
      5 C05          0.6030    -1.3810    -0.2020 ca         1 76Q      -0.078000
      6 C06          0.8290    -2.7580     0.0710 ca         1 76Q       0.270000
      7 C07          1.7150    -0.5030    -0.2660 ca         1 76Q      -0.077000
      8 C08          3.0410    -0.9560    -0.0610 cp         1 76Q      -0.039000
      9 C09          3.2340    -2.3280     0.2110 ca         1 76Q      -0.092000
     10 C10          2.1440    -3.2090     0.2730 ca         1 76Q      -0.083000
     11 C11         -3.2170    -1.5290    -0.5130 cp         1 76Q      -0.036000
     12 C12         -1.0440     0.5450    -0.7290 c3         1 76Q      -0.043100
     13 C13          4.2020    -0.0110    -0.1320 cp         1 76Q      -0.045000
     14 C14         -3.8990    -1.9190    -1.6870 ca         1 76Q      -0.102500
     15 C15         -5.2530    -1.5880    -1.8830 ca         1 76Q      -0.071300
     16 C16         -5.9380    -0.8630    -0.8900 ca         1 76Q      -0.106000
     17 C17         -5.2810    -0.4700     0.2900 ca         1 76Q      -0.071300
     18 C18         -3.9290    -0.8100     0.4740 ca         1 76Q      -0.102500
     19 C19         -5.9700    -2.0150    -3.1540 c3         1 76Q      -0.046800
     20 C20         -6.0260     0.3080     1.3640 c3         1 76Q      -0.046800
     21 C21         -1.0300     1.4570     0.5220 c3         1 76Q      -0.071400
     22 C22         -1.3640     2.9300     0.1990 c3         1 76Q      -0.080400
     23 C23         -1.3600     3.8320     1.4510 c3         1 76Q       0.156800
     24 N24         -1.6870     5.2210     1.0810 n7         1 76Q      -0.858400
     25 C25         -1.7270     6.1740     2.2060 c3         1 76Q       0.145100
     26 C26          4.2080     1.0960    -1.0240 ca         1 76Q       0.306900
     27 N27          5.2290     1.9810    -1.1320 nb         1 76Q      -0.634000
     28 C28          6.3080     1.7930    -0.3360 ca         1 76Q       0.248900
     29 C29          6.4120     0.7270     0.5890 ca         1 76Q       0.090100
     30 C30          5.3470    -0.1820     0.6890 ca         1 76Q      -0.107000
     31 O31          7.5190     0.5650     1.3850 oh         1 76Q      -0.526100
     32 H1          -2.2180    -3.9830     0.0110 h4         1 76Q       0.024100
     33 H2           1.5700     0.5540    -0.4590 ha         1 76Q       0.120000
     34 H3           4.2360    -2.7220     0.3600 ha         1 76Q       0.120000
     35 H4           2.3210    -4.2610     0.4790 ha         1 76Q       0.134000
     36 H5          -0.3400     0.9310    -1.4750 hc         1 76Q       0.056700
     37 H6          -2.0220     0.6370    -1.2130 hc         1 76Q       0.056700
     38 H7          -3.3650    -2.4790    -2.4520 ha         1 76Q       0.115500
     39 H8          -6.9860    -0.6080    -1.0350 ha         1 76Q       0.111000
     40 H9          -3.4240    -0.5230     1.3930 ha         1 76Q       0.115500
     41 H10         -6.4170    -3.0090    -3.0340 hc         1 76Q       0.043200
     42 H11         -6.7720    -1.3150    -3.4160 hc         1 76Q       0.043200
     43 H12         -5.2810    -2.0580    -4.0070 hc         1 76Q       0.043200
     44 H13         -6.4370    -0.3690     2.1210 hc         1 76Q       0.043200
     45 H14         -5.3630     1.0180     1.8730 hc         1 76Q       0.043200
     46 H15         -6.8580     0.8820     0.9400 hc         1 76Q       0.043200
     47 H16         -1.7540     1.0790     1.2520 hc         1 76Q       0.045200
     48 H17         -0.0470     1.4090     1.0050 hc         1 76Q       0.045200
     49 H18         -0.6360     3.3130    -0.5260 hc         1 76Q       0.046200
     50 H19         -2.3520     2.9790    -0.2760 hc         1 76Q       0.046200
     51 H20         -2.0940     3.4460     2.1710 h1         1 76Q       0.028700
     52 H21         -0.3690     3.7850     1.9230 h1         1 76Q       0.028700
     53 H22         -0.9790     5.5470     0.4110 hn         1 76Q       0.404000
     54 H24         -1.9840     7.1810     1.8510 h1         1 76Q       0.029033
     55 H25         -2.4780     5.8730     2.9490 h1         1 76Q       0.029033
     56 H26         -0.7510     6.2300     2.7080 h1         1 76Q       0.029033
     57 H27          3.3630     1.2730    -1.6890 h4         1 76Q       0.024100
     58 H28          7.1140     2.5180    -0.4420 h4         1 76Q       0.018100
     59 H29          5.4030    -0.9990     1.4030 ha         1 76Q       0.137000
     60 H30          8.1640     1.2810     1.1920 ho         1 76Q       0.470000
@<TRIPOS>BOND
     1     1     2 ar  
     2     1     6 ar  
     3     2     3 ar  
     4     2    32 1   
     5     3     4 ar  
     6     3    11 1   
     7     4     5 ar  
     8     4    12 1   
     9     5     6 ar  
    10     5     7 ar  
    11     6    10 ar  
    12     7     8 ar  
    13     7    33 1   
    14     8     9 ar  
    15     8    13 1   
    16     9    10 ar  
    17     9    34 1   
    18    10    35 1   
    19    11    14 ar  
    20    11    18 ar  
    21    12    21 1   
    22    12    36 1   
    23    12    37 1   
    24    13    26 ar  
    25    13    30 ar  
    26    14    15 ar  
    27    14    38 1   
    28    15    16 ar  
    29    15    19 1   
    30    16    17 ar  
    31    16    39 1   
    32    17    18 ar  
    33    17    20 1   
    34    18    40 1   
    35    19    41 1   
    36    19    42 1   
    37    19    43 1   
    38    20    44 1   
    39    20    45 1   
    40    20    46 1   
    41    21    22 1   
    42    21    47 1   
    43    21    48 1   
    44    22    23 1   
    45    22    49 1   
    46    22    50 1   
    47    23    24 1   
    48    23    51 1   
    49    23    52 1   
    50    24    25 1   
    51    24    53 1   
    52    25    54 1   
    53    25    55 1   
    54    25    56 1   
    55    26    27 ar  
    56    26    57 1   
    57    27    28 ar  
    58    28    29 ar  
    59    28    58 1   
    60    29    30 ar  
    61    29    31 1   
    62    30    59 1   
    63    31    60 1   
@<TRIPOS>SUBSTRUCTURE
     1 76Q         1 TEMP              0 ****  ****    0 ROOT
