@<TRIPOS>MOLECULE
76Q
   60    63     1     0     0
SMALL
bcc


@<TRIPOS>ATOM
      1 N01         -0.2450    -3.5120     0.5890 nb         1 76Q      -0.661000
      2 C02         -1.4520    -3.0810     0.3510 ca         1 76Q       0.433200
      3 C03         -1.7720    -1.7860    -0.1220 cp         1 76Q      -0.159300
      4 C04         -0.7500    -0.8890    -0.3440 ca         1 76Q      -0.007300
      5 C05          0.5820    -1.3320    -0.0890 ca         1 76Q      -0.143300
      6 C06          0.7800    -2.6550     0.3730 ca         1 76Q       0.400600
      7 C07          1.7120    -0.5020    -0.2630 ca         1 76Q      -0.095000
      8 C08          2.9860    -0.9530    -0.0070 cp         1 76Q      -0.039000
      9 C09          3.1640    -2.2840     0.4420 ca         1 76Q      -0.110000
     10 C10          2.0930    -3.1090     0.6260 ca         1 76Q      -0.166300
     11 C11         -3.2020    -1.4640    -0.3440 cp         1 76Q      -0.036000
     12 C12         -1.0190     0.5240    -0.7720 c3         1 76Q      -0.043100
     13 C13          4.1510    -0.0700    -0.1830 cp         1 76Q      -0.110300
     14 C14         -3.7050    -1.3330    -1.6360 ca         1 76Q      -0.120500
     15 C15         -5.0480    -1.0480    -1.8550 ca         1 76Q      -0.071300
     16 C16         -5.8830    -0.8960    -0.7500 ca         1 76Q      -0.124000
     17 C17         -5.4090    -1.0290     0.5510 ca         1 76Q      -0.071300
     18 C18         -4.0590    -1.3160     0.7410 ca         1 76Q      -0.120500
     19 C19         -5.5890    -0.9350    -3.2510 c3         1 76Q      -0.046800
     20 C20         -6.3320    -0.8820     1.7260 c3         1 76Q      -0.046800
     21 C21         -1.0180     1.4930     0.4140 c3         1 76Q      -0.071400
     22 C22         -1.3650     2.9130    -0.0090 c3         1 76Q      -0.080400
     23 C23         -1.3160     3.8930     1.1510 c3         1 76Q       0.156800
     24 N24         -1.6700     5.2350     0.7300 n7         1 76Q      -0.803200
     25 C25         -1.6100     6.1940     1.8130 c3         1 76Q       0.145100
     26 C26          4.2150     0.8440    -1.2380 ca         1 76Q       0.372200
     27 N27          5.2390     1.6600    -1.4260 nb         1 76Q      -0.634000
     28 C28          6.2610     1.6160    -0.5840 ca         1 76Q       0.314200
     29 C29          6.3040     0.7370     0.4970 ca         1 76Q       0.024800
     30 C30          5.2280    -0.1170     0.6940 ca         1 76Q      -0.125000
     31 O31          7.3300     0.6850     1.3610 oh         1 76Q      -0.487100
     32 H1          -2.2630    -3.7820     0.5270 h4         1 76Q       0.024100
     33 H2           1.5730     0.5230    -0.5810 ha         1 76Q       0.138000
     34 H3           4.1630    -2.6590     0.6250 ha         1 76Q       0.138000
     35 H4           2.2300    -4.1280     0.9650 ha         1 76Q       0.152000
     36 H5          -0.2870     0.8450    -1.5170 hc         1 76Q       0.056700
     37 H6          -1.9890     0.5790    -1.2660 hc         1 76Q       0.056700
     38 H7          -3.0360    -1.4500    -2.4810 ha         1 76Q       0.133500
     39 H8          -6.9320    -0.6660    -0.9080 ha         1 76Q       0.129000
     40 H9          -3.6680    -1.4130     1.7480 ha         1 76Q       0.133500
     41 H10         -5.9410    -1.9030    -3.6120 hc         1 76Q       0.043200
     42 H11         -6.4330    -0.2460    -3.2990 hc         1 76Q       0.043200
     43 H12         -4.8270    -0.5880    -3.9480 hc         1 76Q       0.043200
     44 H13         -6.6410    -1.8580     2.1050 hc         1 76Q       0.043200
     45 H14         -5.8500    -0.3550     2.5500 hc         1 76Q       0.043200
     46 H15         -7.2340    -0.3340     1.4580 hc         1 76Q       0.043200
     47 H16         -1.7400     1.1450     1.1580 hc         1 76Q       0.045200
     48 H17         -0.0410     1.4830     0.9070 hc         1 76Q       0.045200
     49 H18         -0.6700     3.2400    -0.7910 hc         1 76Q       0.046200
     50 H19         -2.3640     2.9310    -0.4560 hc         1 76Q       0.046200
     51 H20         -2.0270     3.5790     1.9230 h1         1 76Q       0.028700
     52 H21         -0.3200     3.8500     1.6230 h1         1 76Q       0.028700
     53 H22         -1.0280     5.5240     0.0020 hn         1 76Q       0.348800
     54 H24         -1.7990     7.1970     1.4300 h1         1 76Q       0.029033
     55 H25         -2.3850     5.9740     2.5500 h1         1 76Q       0.029033
     56 H26         -0.6490     6.2130     2.3460 h1         1 76Q       0.029033
     57 H27          3.4120     0.8980    -1.9640 h4         1 76Q       0.024100
     58 H28          7.0820     2.3030    -0.7670 h4         1 76Q       0.018100
     59 H29          5.2310    -0.7940     1.5410 ha         1 76Q       0.155000
     60 H30          8.0140     1.3210     1.1210 ho         1 76Q       0.431000
@<TRIPOS>BOND
     1     1     2 ar  
     2     1     6 ar  
     3     2     3 ar  
     4     2    32 1   
     5     3     4 ar  
     6     3    11 1   
     7     4     5 ar  
     8     4    12 1   
     9     5     6 ar  
    10     5     7 ar  
    11     6    10 ar  
    12     7     8 ar  
    13     7    33 1   
    14     8     9 ar  
    15     8    13 1   
    16     9    10 ar  
    17     9    34 1   
    18    10    35 1   
    19    11    14 ar  
    20    11    18 ar  
    21    12    21 1   
    22    12    36 1   
    23    12    37 1   
    24    13    26 ar  
    25    13    30 ar  
    26    14    15 ar  
    27    14    38 1   
    28    15    16 ar  
    29    15    19 1   
    30    16    17 ar  
    31    16    39 1   
    32    17    18 ar  
    33    17    20 1   
    34    18    40 1   
    35    19    41 1   
    36    19    42 1   
    37    19    43 1   
    38    20    44 1   
    39    20    45 1   
    40    20    46 1   
    41    21    22 1   
    42    21    47 1   
    43    21    48 1   
    44    22    23 1   
    45    22    49 1   
    46    22    50 1   
    47    23    24 1   
    48    23    51 1   
    49    23    52 1   
    50    24    25 1   
    51    24    53 1   
    52    25    54 1   
    53    25    55 1   
    54    25    56 1   
    55    26    27 ar  
    56    26    57 1   
    57    27    28 ar  
    58    28    29 ar  
    59    28    58 1   
    60    29    30 ar  
    61    29    31 1   
    62    30    59 1   
    63    31    60 1   
@<TRIPOS>SUBSTRUCTURE
     1 76Q         1 TEMP              0 ****  ****    0 ROOT
