@<TRIPOS>MOLECULE
76S
   49    52     1     0     0
SMALL
abcg2


@<TRIPOS>ATOM
      1 C4          -2.9770    -0.5580     0.0750 ca         1 76S      -0.068000
      2 C5          -2.5340    -1.8770     0.2360 ca         1 76S      -0.251600
      3 C6          -3.4660    -2.9050     0.4200 ca         1 76S       0.206100
      4 C7          -4.7840     1.1430    -0.1130 cp         1 76S      -0.041000
      5 C8          -5.9060     1.6160     0.5700 ca         1 76S      -0.078500
      6 C10         -5.6460     3.7620    -0.4270 ca         1 76S       0.173000
      7 C20          5.5380     0.0210    -0.0540 cc         1 76S       0.435000
      8 C22          3.4270    -0.4260    -0.0210 cc         1 76S       0.384800
      9 C24          6.8060     0.7370    -0.0380 ca         1 76S      -0.087500
     10 C28          9.1960     0.7360    -0.0620 ca         1 76S       0.336900
     11 C1          -4.8400    -2.5930     0.3890 ca         1 76S       0.087100
     12 C2          -5.2500    -1.2900     0.2070 ca         1 76S      -0.143000
     13 C3          -4.3240    -0.2490     0.0550 cp         1 76S      -0.050000
     14 C9          -6.3460     2.9220     0.4180 ca         1 76S      -0.150000
     15 C11         -4.5310     3.3350    -1.1210 ca         1 76S      -0.150000
     16 C12         -4.1100     2.0240    -0.9610 ca         1 76S      -0.078500
     17 F13         -6.0630     5.0290    -0.5780 f          1 76S      -0.177000
     18 O14         -5.6840    -3.6310     0.5400 oh         1 76S      -0.506100
     19 O15         -3.1380    -4.1800     0.6170 oh         1 76S      -0.523100
     20 C16         -1.0940    -2.2420     0.2400 c          1 76S       0.629700
     21 N17         -0.2110    -1.3210    -0.1540 ns         1 76S      -0.487900
     22 O18         -0.7360    -3.3750     0.5940 o          1 76S      -0.638100
     23 N19          4.3120     0.5930     0.0320 na         1 76S      -0.493000
     24 N21          5.3980    -1.2730    -0.1560 nd         1 76S      -0.340000
     25 N23          4.0770    -1.5530    -0.1350 nd         1 76S      -0.350000
     26 C25          1.9540    -0.2530     0.0570 c3         1 76S      -0.120700
     27 N26          9.2660     2.0630    -0.0120 nb         1 76S      -0.653000
     28 C27          1.2160    -1.5560    -0.2120 c3         1 76S       0.107000
     29 C29          8.1220     2.7320     0.0250 ca         1 76S       0.336900
     30 C30          8.0060     0.0300    -0.0770 ca         1 76S      -0.142000
     31 C31          6.8750     2.1260     0.0150 ca         1 76S      -0.142000
     32 H1          -2.2630     0.2520     0.0150 ha         1 76S       0.107000
     33 H2          -6.4400     0.9650     1.2490 ha         1 76S       0.116000
     34 H3          10.1390     0.2010    -0.0920 h4         1 76S       0.024600
     35 H4          -6.3140    -1.0790     0.1700 ha         1 76S       0.119000
     36 H5          -7.2130     3.2820     0.9560 ha         1 76S       0.133000
     37 H6          -4.0050     4.0070    -1.7870 ha         1 76S       0.133000
     38 H7          -3.2520     1.6830    -1.5250 ha         1 76S       0.116000
     39 H8          -6.5970    -3.3230     0.5140 ho         1 76S       0.461000
     40 H9          -2.1500    -4.2040     0.6750 ho         1 76S       0.521000
     41 H10         -0.5470    -0.4740    -0.5810 hn         1 76S       0.314500
     42 H11          4.0890     1.5730     0.1240 hn         1 76S       0.363000
     43 H12          1.6880     0.1260     1.0470 hc         1 76S       0.058200
     44 H13          1.6480     0.5120    -0.6620 hc         1 76S       0.058200
     45 H14          1.4800    -2.3030     0.5340 h1         1 76S       0.080700
     46 H15          1.4970    -1.9580    -1.1880 h1         1 76S       0.080700
     47 H16          8.1910     3.8130     0.0650 h4         1 76S       0.024600
     48 H17          8.0170    -1.0500    -0.1170 ha         1 76S       0.132000
     49 H18          5.9920     2.7490     0.0460 ha         1 76S       0.132000
@<TRIPOS>BOND
     1     1     2 ar  
     2     1    13 ar  
     3     1    32 1   
     4     2     3 ar  
     5     2    20 1   
     6     3    11 ar  
     7     3    19 1   
     8     4     5 ar  
     9     4    13 1   
    10     4    16 ar  
    11     5    14 ar  
    12     5    33 1   
    13     6    14 ar  
    14     6    15 ar  
    15     6    17 1   
    16     7     9 1   
    17     7    23 1   
    18     7    24 2   
    19     8    23 1   
    20     8    25 2   
    21     8    26 1   
    22     9    30 ar  
    23     9    31 ar  
    24    10    27 ar  
    25    10    30 ar  
    26    10    34 1   
    27    11    12 ar  
    28    11    18 1   
    29    12    13 ar  
    30    12    35 1   
    31    14    36 1   
    32    15    16 ar  
    33    15    37 1   
    34    16    38 1   
    35    18    39 1   
    36    19    40 1   
    37    20    21 1   
    38    20    22 2   
    39    21    28 1   
    40    21    41 1   
    41    23    42 1   
    42    24    25 1   
    43    26    28 1   
    44    26    43 1   
    45    26    44 1   
    46    27    29 ar  
    47    28    45 1   
    48    28    46 1   
    49    29    31 ar  
    50    29    47 1   
    51    30    48 1   
    52    31    49 1   
@<TRIPOS>SUBSTRUCTURE
     1 76S         1 TEMP              0 ****  ****    0 ROOT
