@<TRIPOS>MOLECULE
76S
   49    52     1     0     0
SMALL
No Charge or Current Charge


@<TRIPOS>ATOM
      1 C4          -2.9590    -0.5200    -0.0080 ca         1 76S      -0.068000
      2 C5          -2.3890    -1.7930    -0.2650 ca         1 76S      -0.251600
      3 C6          -3.2490    -2.8450    -0.6670 ca         1 76S       0.206100
      4 C7          -4.9250     1.0750     0.1350 cp         1 76S      -0.041000
      5 C8          -6.1900     1.2170     0.7620 ca         1 76S      -0.078500
      6 C10         -6.0180     3.6400     0.6600 ca         1 76S       0.173000
      7 C20          5.5460     0.3870     0.6340 cc         1 76S       0.435000
      8 C22          3.3940     0.2950     1.0280 cc         1 76S       0.384800
      9 C24          6.8330     0.5600    -0.0540 ca         1 76S      -0.087500
     10 C28          9.2710     0.5510    -0.0600 ca         1 76S       0.336900
     11 C1          -4.6420    -2.6210    -0.8060 ca         1 76S       0.087100
     12 C2          -5.1780    -1.3510    -0.5440 ca         1 76S      -0.143000
     13 C3          -4.3480    -0.2790    -0.1420 cp         1 76S      -0.050000
     14 C9          -6.7310     2.4890     1.0230 ca         1 76S      -0.150000
     15 C11         -4.7660     3.5280     0.0380 ca         1 76S      -0.150000
     16 C12         -4.2240     2.2570    -0.2220 ca         1 76S      -0.078500
     17 F13         -6.5380     4.8610     0.9100 f          1 76S      -0.177000
     18 O14         -5.4860    -3.6310    -1.1980 oh         1 76S      -0.506100
     19 O15         -2.7320    -4.0860    -0.9240 oh         1 76S      -0.523100
     20 C16         -0.9020    -2.0350    -0.1140 c          1 76S       0.629700
     21 N17         -0.1280    -0.9700     0.2800 ns         1 76S      -0.487900
     22 O18         -0.4020    -3.1310    -0.3320 o          1 76S      -0.638100
     23 N19          4.3170     0.5430     0.0530 na         1 76S      -0.493000
     24 N21          5.3740     0.0560     1.9040 nd         1 76S      -0.340000
     25 N23          4.0220    -0.0030     2.1500 nd         1 76S      -0.350000
     26 C25          1.9080     0.3410     0.8340 c3         1 76S      -0.120700
     27 N26          9.3370     0.8900    -1.3680 nb         1 76S      -0.653000
     28 C27          1.3230    -1.0350     0.4710 c3         1 76S       0.107000
     29 C29          8.1690     1.0670    -2.0280 ca         1 76S       0.336900
     30 C30          8.0570     0.3780     0.6270 ca         1 76S      -0.142000
     31 C31          6.9110     0.9140    -1.4190 ca         1 76S      -0.142000
     32 H1          -2.3330     0.3060     0.3170 ha         1 76S       0.107000
     33 H2          -6.7500     0.3340     1.0610 ha         1 76S       0.116000
     34 H3          10.2220     0.4130     0.4530 h4         1 76S       0.024600
     35 H4          -6.2450    -1.1830    -0.6650 ha         1 76S       0.119000
     36 H5          -7.7000     2.5820     1.5070 ha         1 76S       0.133000
     37 H6          -4.2200     4.4250    -0.2440 ha         1 76S       0.133000
     38 H7          -3.2590     2.1880    -0.7180 ha         1 76S       0.116000
     39 H8          -6.4020    -3.2820    -1.2370 ho         1 76S       0.461000
     40 H9          -1.7540    -4.0050    -0.7610 ho         1 76S       0.521000
     41 H10         -0.6020    -0.0930     0.4460 hn         1 76S       0.314500
     42 H11          4.1290     0.7940    -0.9050 hn         1 76S       0.363000
     43 H12          1.4310     0.7060     1.7520 hc         1 76S       0.058200
     44 H13          1.6620     1.0600     0.0430 hc         1 76S       0.058200
     45 H14          1.5450    -1.7540     1.2720 h1         1 76S       0.080700
     46 H15          1.7890    -1.4010    -0.4540 h1         1 76S       0.080700
     47 H16          8.2450     1.3400    -3.0800 h4         1 76S       0.024600
     48 H17          8.0800     0.1050     1.6780 ha         1 76S       0.132000
     49 H18          6.0180     1.0730    -2.0160 ha         1 76S       0.132000
@<TRIPOS>BOND
     1     1     2 ar  
     2     1    13 ar  
     3     1    32 1   
     4     2     3 ar  
     5     2    20 1   
     6     3    11 ar  
     7     3    19 1   
     8     4     5 ar  
     9     4    13 1   
    10     4    16 ar  
    11     5    14 ar  
    12     5    33 1   
    13     6    14 ar  
    14     6    15 ar  
    15     6    17 1   
    16     7     9 1   
    17     7    23 1   
    18     7    24 2   
    19     8    23 1   
    20     8    25 2   
    21     8    26 1   
    22     9    30 ar  
    23     9    31 ar  
    24    10    27 ar  
    25    10    30 ar  
    26    10    34 1   
    27    11    12 ar  
    28    11    18 1   
    29    12    13 ar  
    30    12    35 1   
    31    14    36 1   
    32    15    16 ar  
    33    15    37 1   
    34    16    38 1   
    35    18    39 1   
    36    19    40 1   
    37    20    21 1   
    38    20    22 2   
    39    21    28 1   
    40    21    41 1   
    41    23    42 1   
    42    24    25 1   
    43    26    28 1   
    44    26    43 1   
    45    26    44 1   
    46    27    29 ar  
    47    28    45 1   
    48    28    46 1   
    49    29    31 ar  
    50    29    47 1   
    51    30    48 1   
    52    31    49 1   
@<TRIPOS>SUBSTRUCTURE
     1 76S         1 TEMP              0 ****  ****    0 ROOT
