@<TRIPOS>MOLECULE
76T
   59    63     1     0     0
SMALL
No Charge or Current Charge


@<TRIPOS>ATOM
      1 C4           2.6130    -2.7710    -0.0600 c          1 76T       0.624700
      2 C6           5.0420     0.2180    -0.4780 cp         1 76T      -0.047000
      3 C7           6.0610    -1.7900    -1.4370 ca         1 76T       0.098100
      4 C8          -8.0540    -0.0370    -0.7040 ca         1 76T      -0.187900
      5 C10          6.1180    -0.4240    -1.1370 ca         1 76T      -0.089000
      6 C13          5.1020     1.6790    -0.1550 cp         1 76T      -0.044000
      7 C15         -6.9010    -0.4540    -0.0220 ca         1 76T      -0.116000
      8 C20          4.5500     2.1860     1.0500 ca         1 76T      -0.076500
      9 C21         -5.7660     0.3870    -0.0650 ca         1 76T       0.259000
     10 C26         -3.3380     0.7230     0.7140 c3         1 76T       0.247100
     11 C28         -0.5720    -1.7580     1.6850 ca         1 76T      -0.124300
     12 C1           3.8300    -1.9470    -0.4290 ca         1 76T      -0.230600
     13 C2           4.9270    -2.5500    -1.0880 ca         1 76T       0.135100
     14 C3           3.9080    -0.5610    -0.1340 ca         1 76T      -0.073000
     15 N5         -10.1560     0.1360    -1.6120 nc         1 76T      -0.511100
     16 N9          -9.3660     1.2530    -1.9460 na         1 76T      -0.063400
     17 N11          1.5870    -2.1220     0.5810 ns         1 76T      -0.477900
     18 C12         -8.1050     1.1310    -1.3910 ca         1 76T      -0.075200
     19 C14         -9.3560    -0.6410    -0.8600 cd         1 76T       0.339800
     20 O16          2.5420    -3.9660    -0.3200 o          1 76T      -0.652100
     21 N17         -4.6060    -0.0100     0.6080 nu         1 76T      -0.933200
     22 C18         -7.0050     1.9950    -1.4620 ca         1 76T      -0.095000
     23 C19          5.7140     2.6000    -1.0450 ca         1 76T      -0.076500
     24 O22          4.9020    -3.8830    -1.3950 oh         1 76T      -0.575100
     25 C23          0.3470    -2.7620     1.0080 c3         1 76T       0.147300
     26 C25          5.2150     4.4470     0.4550 ca         1 76T       0.173000
     27 C27         -1.4950    -1.0150     0.9240 ca         1 76T      -0.071000
     28 C29         -5.8240     1.6090    -0.7870 ca         1 76T      -0.123000
     29 C30         -2.3440    -0.0770     1.5440 ca         1 76T      -0.107300
     30 C31          4.6060     3.5580     1.3520 ca         1 76T      -0.151000
     31 C32          5.7690     3.9720    -0.7420 ca         1 76T      -0.151000
     32 F33          5.2690     5.7650     0.7450 f          1 76T      -0.178000
     33 C34         -1.3450    -0.6250     3.7000 ca         1 76T      -0.116000
     34 C35         -2.2660     0.1120     2.9370 ca         1 76T      -0.091000
     35 C36         -0.4990    -1.5570     3.0770 ca         1 76T      -0.085000
     36 H1           7.0080     0.1390    -1.4040 ha         1 76T       0.135000
     37 H3           4.0870     1.5090     1.7640 ha         1 76T       0.119500
     38 H4          -2.9180     0.9020    -0.2860 h1         1 76T       0.043200
     39 H5          -3.5050     1.7020     1.1860 h1         1 76T       0.043200
     40 H6           3.0800    -0.0580     0.3560 ha         1 76T       0.111000
     41 H8           1.7060    -1.1370     0.7690 hn         1 76T       0.325500
     42 H9          -9.7370    -1.5770    -0.4710 h4         1 76T       0.048800
     43 H10         -4.6520    -0.9010     1.1020 hn         1 76T       0.457000
     44 H11         -7.0550     2.9300    -2.0160 ha         1 76T       0.118000
     45 H12          6.1360     2.2500    -1.9840 ha         1 76T       0.119500
     46 H13          4.0200    -4.2160    -1.0650 ho         1 76T       0.534000
     47 H14          0.5850    -3.5800     1.7010 h1         1 76T       0.066700
     48 H15         -0.1530    -3.1950     0.1310 h1         1 76T       0.066700
     49 H17         -1.5530    -1.1650    -0.1530 ha         1 76T       0.125000
     50 H18         -4.9590     2.2630    -0.8280 ha         1 76T       0.113000
     51 H19          4.1820     3.9320     2.2810 ha         1 76T       0.133000
     52 H20          6.2380     4.6670    -1.4350 ha         1 76T       0.133000
     53 H21         -1.2880    -0.4740     4.7760 ha         1 76T       0.119000
     54 H22         -2.9190     0.8310     3.4280 ha         1 76T       0.116000
     55 H23          0.2130    -2.1220     3.6760 ha         1 76T       0.121000
     56 H7          -9.7140     2.0220    -2.5200 hn         1 76T       0.375000
     57 O24          7.1110    -2.3950    -2.0700 oh         1 76T      -0.533100
     58 H2          -6.8840    -1.3940     0.5220 ha         1 76T       0.118000
     59 H16          6.8580    -3.3410    -2.1770 ho         1 76T       0.488000
@<TRIPOS>BOND
     1     1    12 1   
     2     1    17 1   
     3     1    20 2   
     4     2     5 ar  
     5     2     6 1   
     6     2    14 ar  
     7     3     5 ar  
     8     3    13 ar  
     9     3    57 1   
    10     4     7 ar  
    11     4    18 ar  
    12     4    19 1   
    13     5    36 1   
    14     6     8 ar  
    15     6    23 ar  
    16     7     9 ar  
    17     7    58 1   
    18     8    30 ar  
    19     8    37 1   
    20     9    21 1   
    21     9    28 ar  
    22    10    21 1   
    23    10    29 1   
    24    10    38 1   
    25    10    39 1   
    26    11    25 1   
    27    11    27 ar  
    28    11    35 ar  
    29    12    13 ar  
    30    12    14 ar  
    31    13    24 1   
    32    14    40 1   
    33    15    16 1   
    34    15    19 2   
    35    16    18 1   
    36    16    56 1   
    37    17    25 1   
    38    17    41 1   
    39    18    22 ar  
    40    19    42 1   
    41    21    43 1   
    42    22    28 ar  
    43    22    44 1   
    44    23    31 ar  
    45    23    45 1   
    46    24    46 1   
    47    25    47 1   
    48    25    48 1   
    49    26    30 ar  
    50    26    31 ar  
    51    26    32 1   
    52    27    29 ar  
    53    27    49 1   
    54    28    50 1   
    55    29    34 ar  
    56    30    51 1   
    57    31    52 1   
    58    33    34 ar  
    59    33    35 ar  
    60    33    53 1   
    61    34    54 1   
    62    35    55 1   
    63    57    59 1   
@<TRIPOS>SUBSTRUCTURE
     1 76T         1 TEMP              0 ****  ****    0 ROOT
