@<TRIPOS>MOLECULE
76T
   59    63     1     0     0
SMALL
bcc


@<TRIPOS>ATOM
      1 C4           2.6020    -2.5580    -0.1160 c          1 76T       0.691700
      2 C6           5.2130     0.1990    -0.3090 cp         1 76T      -0.047000
      3 C7           6.1330    -1.8530    -1.2070 ca         1 76T       0.098100
      4 C8          -8.3100    -0.2130    -0.4240 ca         1 76T      -0.187900
      5 C10          6.2620    -0.5140    -0.9030 ca         1 76T      -0.107000
      6 C13          5.3810     1.6250     0.0350 cp         1 76T      -0.044000
      7 C15         -7.1020    -0.5970     0.1670 ca         1 76T      -0.134000
      8 C20          4.8140     2.1540     1.1960 ca         1 76T      -0.094500
      9 C21         -5.9610     0.1520    -0.0810 ca         1 76T       0.120600
     10 C26         -3.6660     0.7110     0.6320 c3         1 76T       0.247100
     11 C28         -0.6500    -1.5170     1.2140 ca         1 76T      -0.124300
     12 C1           3.8660    -1.8170    -0.3560 ca         1 76T      -0.230600
     13 C2           4.9340    -2.5260    -0.9150 ca         1 76T       0.135100
     14 C3           4.0260    -0.4620    -0.0460 ca         1 76T      -0.091000
     15 N5         -10.4230     0.0520    -1.1590 nc         1 76T      -0.511100
     16 N9          -9.6620     1.0220    -1.6580 na         1 76T      -0.013100
     17 N11          1.5070    -1.8570     0.1800 ns         1 76T      -0.544900
     18 C12         -8.3690     0.9190    -1.2520 ca         1 76T      -0.075200
     19 C14         -9.6460    -0.7010    -0.4170 cd         1 76T       0.339800
     20 O16          2.5760    -3.7960    -0.1930 o          1 76T      -0.652100
     21 N17         -4.7420    -0.2440     0.4530 nu         1 76T      -0.739600
     22 C18         -7.2340     1.6910    -1.5030 ca         1 76T      -0.113000
     23 C19          6.1140     2.4800    -0.7880 ca         1 76T      -0.094500
     24 O22          4.8930    -3.8290    -1.2060 oh         1 76T      -0.536100
     25 C23          0.2150    -2.4700     0.4360 c3         1 76T       0.147300
     26 C25          5.6990     4.3030     0.6840 ca         1 76T       0.137900
     27 C27         -1.7180    -0.8740     0.6080 ca         1 76T      -0.089000
     28 C29         -6.0530     1.3000    -0.9150 ca         1 76T      -0.141000
     29 C30         -2.5020     0.0410     1.3090 ca         1 76T      -0.107300
     30 C31          4.9650     3.4920     1.5270 ca         1 76T      -0.169000
     31 C32          6.2800     3.8200    -0.4710 ca         1 76T      -0.169000
     32 F33          5.8560     5.5990     0.9990 f          1 76T      -0.142900
     33 C34         -1.1370    -0.3420     3.2600 ca         1 76T      -0.134000
     34 C35         -2.2050     0.2980     2.6400 ca         1 76T      -0.109000
     35 C36         -0.3620    -1.2440     2.5520 ca         1 76T      -0.103000
     36 H1           7.2070    -0.0260    -1.1100 ha         1 76T       0.153000
     37 H3           4.2600     1.5130     1.8690 ha         1 76T       0.137500
     38 H4          -3.3430     1.0800    -0.3440 h1         1 76T       0.043200
     39 H5          -3.9790     1.5890     1.2130 h1         1 76T       0.043200
     40 H6           3.2160     0.0920     0.4110 ha         1 76T       0.129000
     41 H8           1.5200    -0.8550     0.0810 hn         1 76T       0.325500
     42 H9         -10.0450    -1.5620     0.0970 h4         1 76T       0.048800
     43 H10         -4.8450    -0.8650     1.2420 hn         1 76T       0.401800
     44 H11         -7.2680     2.5700    -2.1330 ha         1 76T       0.136000
     45 H12          6.5520     2.1070    -1.7060 ha         1 76T       0.137500
     46 H13          4.0220    -4.1630    -0.8680 ho         1 76T       0.495000
     47 H14          0.3720    -3.3900     1.0000 h1         1 76T       0.066700
     48 H15         -0.2710    -2.7450    -0.5040 h1         1 76T       0.066700
     49 H17         -1.9430    -1.0790    -0.4340 ha         1 76T       0.143000
     50 H18         -5.1710     1.8960    -1.1050 ha         1 76T       0.131000
     51 H19          4.5270     3.8910     2.4320 ha         1 76T       0.151000
     52 H20          6.8460     4.4750    -1.1200 ha         1 76T       0.151000
     53 H21         -0.9140    -0.1360     4.2990 ha         1 76T       0.137000
     54 H22         -2.8080     1.0030     3.2000 ha         1 76T       0.134000
     55 H23          0.4700    -1.7410     3.0360 ha         1 76T       0.139000
     56 H7         -10.0680     1.7170    -2.2630 hn         1 76T       0.324700
     57 O24          7.1700    -2.5050    -1.7640 oh         1 76T      -0.494100
     58 H2          -7.0560    -1.4700     0.8080 ha         1 76T       0.136000
     59 H16          6.9440    -3.4310    -1.9150 ho         1 76T       0.449000
@<TRIPOS>BOND
     1     1    12 1   
     2     1    17 1   
     3     1    20 2   
     4     2     5 ar  
     5     2     6 1   
     6     2    14 ar  
     7     3     5 ar  
     8     3    13 ar  
     9     3    57 1   
    10     4     7 ar  
    11     4    18 ar  
    12     4    19 1   
    13     5    36 1   
    14     6     8 ar  
    15     6    23 ar  
    16     7     9 ar  
    17     7    58 1   
    18     8    30 ar  
    19     8    37 1   
    20     9    21 1   
    21     9    28 ar  
    22    10    21 1   
    23    10    29 1   
    24    10    38 1   
    25    10    39 1   
    26    11    25 1   
    27    11    27 ar  
    28    11    35 ar  
    29    12    13 ar  
    30    12    14 ar  
    31    13    24 1   
    32    14    40 1   
    33    15    16 1   
    34    15    19 2   
    35    16    18 1   
    36    16    56 1   
    37    17    25 1   
    38    17    41 1   
    39    18    22 ar  
    40    19    42 1   
    41    21    43 1   
    42    22    28 ar  
    43    22    44 1   
    44    23    31 ar  
    45    23    45 1   
    46    24    46 1   
    47    25    47 1   
    48    25    48 1   
    49    26    30 ar  
    50    26    31 ar  
    51    26    32 1   
    52    27    29 ar  
    53    27    49 1   
    54    28    50 1   
    55    29    34 ar  
    56    30    51 1   
    57    31    52 1   
    58    33    34 ar  
    59    33    35 ar  
    60    33    53 1   
    61    34    54 1   
    62    35    55 1   
    63    57    59 1   
@<TRIPOS>SUBSTRUCTURE
     1 76T         1 TEMP              0 ****  ****    0 ROOT
