@<TRIPOS>MOLECULE
76V
   56    56     1     0     0
SMALL
No Charge or Current Charge


@<TRIPOS>ATOM
      1 C10         -5.4620     3.4680     0.1830 c3         1 76V       0.168600
      2 C11         -5.8970     4.4670     1.2670 c3         1 76V      -0.097100
      3 C9          -4.0800     1.5010     0.0270 c          1 76V       0.602100
      4 O2          -4.2840     1.3890    -1.1760 o          1 76V      -0.476000
      5 O3          -4.5960     2.5050     0.8070 os         1 76V      -0.438100
      6 C3          -3.1350    -0.8840     0.4400 cx         1 76V       0.013300
      7 C2          -3.1660     0.5790     0.8070 cx         1 76V       0.023300
      8 O1          -3.7910    -0.4240     1.6540 op         1 76V      -0.372000
      9 O4          -1.6470    -2.5240     1.4010 o          1 76V      -0.604100
     10 N1          -0.8360    -1.2120    -0.2860 ns         1 76V      -0.466900
     11 C5           0.5390    -1.7630    -0.3580 c3         1 76V       0.016700
     12 C6           1.5660    -0.6050    -0.5410 c          1 76V       0.592100
     13 O5           1.2330     0.5450    -0.8070 o          1 76V      -0.619100
     14 C12          0.6730    -2.8620    -1.4620 c3         1 76V      -0.063700
     15 C14          0.3270    -2.3250    -2.8840 c3         1 76V      -0.070400
     16 C13         -0.1340    -4.1350    -1.1010 c3         1 76V      -0.087100
     17 C15          0.6380    -3.3060    -4.0350 c3         1 76V      -0.083100
     18 N2           2.8880    -0.9680    -0.3850 ns         1 76V      -0.452900
     19 C7           4.0510    -0.0490    -0.4730 c3         1 76V      -0.037300
     20 C8           5.3480    -0.8450    -0.8380 c          1 76V       0.719000
     21 O7           6.0790    -0.3830    -1.7040 o          1 76V      -0.724500
     22 C16          4.2030     0.8370     0.8050 c3         1 76V      -0.046700
     23 C18          5.2890     1.9330     0.6130 c3         1 76V      -0.071400
     24 C17          4.4290    -0.0000     2.0920 c3         1 76V      -0.079100
     25 C19          5.3350     3.0020     1.7260 c3         1 76V      -0.085100
     26 O6           5.5020    -1.9660    -0.3680 o          1 76V      -0.724500
     27 H101        -6.3490     2.9800    -0.2430 h1         1 76V       0.048200
     28 H102        -4.9390     4.0040    -0.6210 h1         1 76V       0.048200
     29 H111        -6.4340     3.9530     2.0720 hc         1 76V       0.047367
     30 H112        -5.0260     4.9760     1.6950 hc         1 76V       0.047367
     31 H113        -6.5630     5.2250     0.8380 hc         1 76V       0.047367
     32 H3          -3.8050    -1.2530    -0.3350 h1         1 76V       0.108700
     33 H2          -2.2730     1.0450     1.2220 h1         1 76V       0.131700
     34 HN1         -1.0690    -0.4410    -0.9030 hn         1 76V       0.336500
     35 H5           0.7830    -2.2190     0.6110 h1         1 76V       0.075700
     36 H12          1.7260    -3.1700    -1.4820 hc         1 76V       0.073700
     37 H141        -0.7350    -2.0560    -2.9300 hc         1 76V       0.051200
     38 H142         0.8910    -1.4030    -3.0700 hc         1 76V       0.051200
     39 H131         0.1240    -4.9680    -1.7660 hc         1 76V       0.029033
     40 H132         0.0860    -4.4550    -0.0760 hc         1 76V       0.029033
     41 H133        -1.2130    -3.9550    -1.1820 hc         1 76V       0.029033
     42 H151         1.6860    -3.6290    -4.0000 hc         1 76V       0.029367
     43 H152        -0.0030    -4.1940    -3.9850 hc         1 76V       0.029367
     44 H153         0.4630    -2.8210    -5.0020 hc         1 76V       0.029367
     45 HN2          3.0770    -1.9410    -0.1740 hn         1 76V       0.292500
     46 H7           3.8610     0.6220    -1.3210 h1         1 76V       0.060700
     47 H16          3.2500     1.3630     0.9380 hc         1 76V       0.010700
     48 H181         6.2790     1.4660     0.5340 hc         1 76V       0.057200
     49 H182         5.1100     2.4460    -0.3410 hc         1 76V       0.057200
     50 H171         3.6680    -0.7820     2.1950 hc         1 76V       0.027033
     51 H172         5.4150    -0.4810     2.0810 hc         1 76V       0.027033
     52 H173         4.3680     0.6290     2.9860 hc         1 76V       0.027033
     53 H191         6.0510     3.7900     1.4650 hc         1 76V       0.017033
     54 H192         4.3500     3.4670     1.8600 hc         1 76V       0.017033
     55 H193         5.6500     2.5680     2.6820 hc         1 76V       0.017033
     56 C4          -1.8220    -1.6290     0.5840 c          1 76V       0.610100
@<TRIPOS>BOND
     1     1     2 1   
     2     1     5 1   
     3     1    27 1   
     4     1    28 1   
     5     2    29 1   
     6     2    30 1   
     7     2    31 1   
     8     3     4 2   
     9     3     5 1   
    10     3     7 1   
    11     6     7 1   
    12     6     8 1   
    13     6    32 1   
    14     6    56 1   
    15     7     8 1   
    16     7    33 1   
    17     9    56 2   
    18    10    11 1   
    19    10    34 1   
    20    10    56 1   
    21    11    12 1   
    22    11    14 1   
    23    11    35 1   
    24    12    13 2   
    25    12    18 1   
    26    14    15 1   
    27    14    16 1   
    28    14    36 1   
    29    15    17 1   
    30    15    37 1   
    31    15    38 1   
    32    16    39 1   
    33    16    40 1   
    34    16    41 1   
    35    17    42 1   
    36    17    43 1   
    37    17    44 1   
    38    18    19 1   
    39    18    45 1   
    40    19    20 1   
    41    19    22 1   
    42    19    46 1   
    43    20    21 1   
    44    20    26 1   
    45    22    23 1   
    46    22    24 1   
    47    22    47 1   
    48    23    25 1   
    49    23    48 1   
    50    23    49 1   
    51    24    50 1   
    52    24    51 1   
    53    24    52 1   
    54    25    53 1   
    55    25    54 1   
    56    25    55 1   
@<TRIPOS>SUBSTRUCTURE
     1 76V         1 TEMP              0 ****  ****    0 ROOT
