@<TRIPOS>MOLECULE
76V
   56    56     1     0     0
SMALL
abcg2


@<TRIPOS>ATOM
      1 C10         -5.7880     3.4140    -0.1600 c3         1 76V       0.168600
      2 C11         -5.4750     4.6310     0.6740 c3         1 76V      -0.097100
      3 C9          -5.1900     1.1260    -0.1840 c          1 76V       0.602100
      4 O2          -5.8610     0.8940    -1.1550 o          1 76V      -0.476000
      5 O3          -5.0770     2.2970     0.4080 os         1 76V      -0.438100
      6 C3          -3.4420    -0.7070    -0.3340 cx         1 76V       0.013300
      7 C2          -4.3390     0.1040     0.5040 cx         1 76V       0.023300
      8 O1          -4.6310    -1.2300     0.1880 op         1 76V      -0.372000
      9 O4          -2.1660    -1.7130     1.4040 o          1 76V      -0.604100
     10 N1          -1.0960    -1.0540    -0.4900 ns         1 76V      -0.466900
     11 C5           0.2570    -1.3540    -0.0940 c3         1 76V       0.016700
     12 C6           1.1390    -0.1420    -0.3930 c          1 76V       0.592100
     13 O5           0.7930     0.7290    -1.1800 o          1 76V      -0.619100
     14 C12          0.8090    -2.6210    -0.7840 c3         1 76V      -0.063700
     15 C14          0.7310    -2.5330    -2.3100 c3         1 76V      -0.070400
     16 C13          0.1070    -3.8610    -0.2420 c3         1 76V      -0.087100
     17 C15          1.5750    -3.5870    -3.0130 c3         1 76V      -0.083100
     18 N2           2.2990    -0.1220     0.2700 ns         1 76V      -0.452900
     19 C7           3.3830     0.7570    -0.1190 c3         1 76V      -0.037300
     20 C8           3.8500     0.4790    -1.5710 c          1 76V       0.719000
     21 O7           4.4130     1.4340    -2.1450 o          1 76V      -0.724500
     22 C16          4.5310     0.6110     0.8990 c3         1 76V      -0.046700
     23 C18          5.5020     1.7920     0.8280 c3         1 76V      -0.071400
     24 C17          5.2600    -0.7270     0.7740 c3         1 76V      -0.079100
     25 C19          6.5190     1.8110     1.9620 c3         1 76V      -0.085100
     26 O6           3.6550    -0.6610    -2.0240 o          1 76V      -0.724500
     27 H101        -6.8590     3.2000    -0.1550 h1         1 76V       0.048200
     28 H102        -5.4740     3.5550    -1.1950 h1         1 76V       0.048200
     29 H111        -5.7970     4.5050     1.7070 hc         1 76V       0.047367
     30 H112        -4.4100     4.8620     0.6640 hc         1 76V       0.047367
     31 H113        -6.0060     5.4890     0.2610 hc         1 76V       0.047367
     32 H3          -3.4350    -0.5320    -1.4090 h1         1 76V       0.108700
     33 H2          -4.0580     0.3080     1.5350 h1         1 76V       0.131700
     34 HN1         -1.2090    -0.5720    -1.3700 hn         1 76V       0.336500
     35 H5           0.2590    -1.5290     0.9850 h1         1 76V       0.075700
     36 H12          1.8690    -2.6800    -0.5120 hc         1 76V       0.073700
     37 H141        -0.3130    -2.6240    -2.6280 hc         1 76V       0.051200
     38 H142         1.0770    -1.5520    -2.6400 hc         1 76V       0.051200
     39 H131         0.5320    -4.7710    -0.6640 hc         1 76V       0.029033
     40 H132         0.2020    -3.9250     0.8430 hc         1 76V       0.029033
     41 H133        -0.9580    -3.8530    -0.4840 hc         1 76V       0.029033
     42 H151         2.6300    -3.4560    -2.7660 hc         1 76V       0.029367
     43 H152         1.2890    -4.6020    -2.7360 hc         1 76V       0.029367
     44 H153         1.4780    -3.5050    -4.0960 hc         1 76V       0.029367
     45 HN2          2.5270    -0.9250     0.8360 hn         1 76V       0.292500
     46 H7           3.0220     1.7880    -0.0590 h1         1 76V       0.060700
     47 H16          4.0610     0.6450     1.8910 hc         1 76V       0.010700
     48 H181         6.0180     1.7840    -0.1340 hc         1 76V       0.057200
     49 H182         4.9230     2.7200     0.8540 hc         1 76V       0.057200
     50 H171         4.5780    -1.5780     0.7650 hc         1 76V       0.027033
     51 H172         5.8500    -0.7720    -0.1430 hc         1 76V       0.027033
     52 H173         5.9430    -0.8760     1.6110 hc         1 76V       0.027033
     53 H191         7.1310     2.7120     1.9200 hc         1 76V       0.017033
     54 H192         6.0250     1.7930     2.9360 hc         1 76V       0.017033
     55 H193         7.1950     0.9570     1.9190 hc         1 76V       0.017033
     56 C4          -2.1700    -1.2210     0.2890 c          1 76V       0.610100
@<TRIPOS>BOND
     1     1     2 1   
     2     1     5 1   
     3     1    27 1   
     4     1    28 1   
     5     2    29 1   
     6     2    30 1   
     7     2    31 1   
     8     3     4 2   
     9     3     5 1   
    10     3     7 1   
    11     6     7 1   
    12     6     8 1   
    13     6    32 1   
    14     6    56 1   
    15     7     8 1   
    16     7    33 1   
    17     9    56 2   
    18    10    11 1   
    19    10    34 1   
    20    10    56 1   
    21    11    12 1   
    22    11    14 1   
    23    11    35 1   
    24    12    13 2   
    25    12    18 1   
    26    14    15 1   
    27    14    16 1   
    28    14    36 1   
    29    15    17 1   
    30    15    37 1   
    31    15    38 1   
    32    16    39 1   
    33    16    40 1   
    34    16    41 1   
    35    17    42 1   
    36    17    43 1   
    37    17    44 1   
    38    18    19 1   
    39    18    45 1   
    40    19    20 1   
    41    19    22 1   
    42    19    46 1   
    43    20    21 1   
    44    20    26 1   
    45    22    23 1   
    46    22    24 1   
    47    22    47 1   
    48    23    25 1   
    49    23    48 1   
    50    23    49 1   
    51    24    50 1   
    52    24    51 1   
    53    24    52 1   
    54    25    53 1   
    55    25    54 1   
    56    25    55 1   
@<TRIPOS>SUBSTRUCTURE
     1 76V         1 TEMP              0 ****  ****    0 ROOT
