@<TRIPOS>MOLECULE
76X
   15    15     1     0     0
SMALL
bcc


@<TRIPOS>ATOM
      1 N8           1.8050    -1.3420    -0.1020 nv         1 76X      -0.802200
      2 C3           0.5610    -0.7260    -0.0240 ca         1 76X      -0.033700
      3 C2           0.4910     0.6890     0.0330 ca         1 76X       0.608200
      4 N7           1.6620     1.4140     0.0810 nv         1 76X      -0.926500
      5 C4          -0.6370    -1.4150    -0.0520 ca         1 76X      -0.132000
      6 C5          -1.8450    -0.7180    -0.0080 ca         1 76X      -0.257300
      7 C6          -1.7990     0.6560     0.0790 ca         1 76X       0.408200
      8 N1          -0.6540     1.3430     0.0930 nb         1 76X      -0.720000
      9 H1           2.4850    -0.9730     0.5490 hn         1 76X       0.380300
     10 H2           1.7600    -2.3460    -0.0070 hn         1 76X       0.380300
     11 H3           2.4190     1.0490    -0.4790 hn         1 76X       0.401300
     12 H4           1.5320     2.4020    -0.0700 hn         1 76X       0.401300
     13 H5          -0.6310    -2.4980    -0.0970 ha         1 76X       0.132000
     14 H6          -2.7900    -1.2420    -0.0300 ha         1 76X       0.140000
     15 H7          -2.7100     1.2410     0.1310 h4         1 76X       0.018100
@<TRIPOS>BOND
     1     1     2 1   
     2     1     9 1   
     3     1    10 1   
     4     2     3 ar  
     5     2     5 ar  
     6     3     4 1   
     7     3     8 ar  
     8     4    11 1   
     9     4    12 1   
    10     5     6 ar  
    11     5    13 1   
    12     6     7 ar  
    13     6    14 1   
    14     7     8 ar  
    15     7    15 1   
@<TRIPOS>SUBSTRUCTURE
     1 76X         1 TEMP              0 ****  ****    0 ROOT
