@<TRIPOS>MOLECULE
76X
   15    15     1     0     0
SMALL
No Charge or Current Charge


@<TRIPOS>ATOM
      1 N8           1.7780    -1.4900    -0.0110 nv         1 76X      -1.051000
      2 C3           0.5870    -0.7590     0.0040 ca         1 76X       0.170000
      3 C2           0.5110     0.6810     0.0640 ca         1 76X       0.542900
      4 N7           1.5770     1.5150     0.0800 nv         1 76X      -1.036900
      5 C4          -0.6360    -1.4510    -0.0340 ca         1 76X      -0.114000
      6 C5          -1.8310    -0.7070    -0.0090 ca         1 76X      -0.174000
      7 C6          -1.7780     0.6990     0.0520 ca         1 76X       0.342900
      8 N1          -0.6170     1.3940     0.0850 nb         1 76X      -0.720000
      9 H1           2.6520    -1.0340     0.2470 hn         1 76X       0.435500
     10 H2           1.7500    -2.5060     0.0760 hn         1 76X       0.435500
     11 H3           2.4410     1.1610    -0.3150 hn         1 76X       0.456500
     12 H4           1.3670     2.4900    -0.0980 hn         1 76X       0.456500
     13 H5          -0.6630    -2.5370    -0.0800 ha         1 76X       0.114000
     14 H6          -2.7940    -1.2090    -0.0350 ha         1 76X       0.122000
     15 H7          -2.6950     1.2870     0.0720 h4         1 76X       0.018100
@<TRIPOS>BOND
     1     1     2 1   
     2     1     9 1   
     3     1    10 1   
     4     2     3 ar  
     5     2     5 ar  
     6     3     4 1   
     7     3     8 ar  
     8     4    11 1   
     9     4    12 1   
    10     5     6 ar  
    11     5    13 1   
    12     6     7 ar  
    13     6    14 1   
    14     7     8 ar  
    15     7    15 1   
@<TRIPOS>SUBSTRUCTURE
     1 76X         1 TEMP              0 ****  ****    0 ROOT
