@<TRIPOS>MOLECULE
76Y
   27    28     1     0     0
SMALL
No Charge or Current Charge


@<TRIPOS>ATOM
      1 C1          -2.8740    -0.9600     0.2620 c          1 76Y       0.639700
      2 C2          -2.1510     0.1800    -0.3700 cc         1 76Y      -0.257600
      3 C3          -2.5690     0.6860    -1.5780 cd         1 76Y      -0.102000
      4 C4          -1.7600     1.7730    -1.9400 cd         1 76Y      -0.196000
      5 C5          -0.8200     1.9620    -0.9710 cc         1 76Y      -0.169000
      6 C11          3.1150    -0.8400    -0.0280 ca         1 76Y      -0.104000
      7 C12          1.7630    -0.6540     0.3090 ca         1 76Y       0.139000
      8 Cl           0.6560    -2.0110     0.1060 cl         1 76Y      -0.177000
      9 C10          4.0330     0.2120     0.1240 ca         1 76Y      -0.089000
     10 C9           3.5980     1.4530     0.6150 ca         1 76Y      -0.112000
     11 C8           2.2470     1.6430     0.9530 ca         1 76Y      -0.090000
     12 C7           1.3170     0.5930     0.8040 ca         1 76Y      -0.114300
     13 N2          -1.0320     0.9710    -0.0060 na         1 76Y       0.039000
     14 O           -3.8160    -1.5270    -0.2660 o          1 76Y      -0.590100
     15 N1          -2.4790    -1.3720     1.4810 nt         1 76Y      -0.605000
     16 H1          -3.4090     0.3150    -2.1600 ha         1 76Y       0.146000
     17 H2          -1.8670     2.3690    -2.8420 ha         1 76Y       0.136000
     18 H3          -0.0220     2.6910    -0.8930 h4         1 76Y       0.148000
     19 H4          -0.4760     0.0260     1.8260 h1         1 76Y       0.069700
     20 H5          -0.2280     1.7600     1.7570 h1         1 76Y       0.069700
     21 H6           3.4500    -1.8020    -0.4060 ha         1 76Y       0.134000
     22 H7           5.0790     0.0650    -0.1380 ha         1 76Y       0.122000
     23 H8           4.3080     2.2700     0.7330 ha         1 76Y       0.122000
     24 H9           1.9250     2.6120     1.3300 ha         1 76Y       0.117000
     25 H10         -2.9650    -2.1410     1.9170 hn         1 76Y       0.305000
     26 H11         -1.7180    -0.9180     1.9530 hn         1 76Y       0.305000
     27 C6          -0.1470     0.8350     1.1730 c3         1 76Y       0.115900
@<TRIPOS>BOND
     1     1     2 1   
     2     1    14 2   
     3     1    15 1   
     4     2     3 2   
     5     2    13 1   
     6     3     4 1   
     7     3    16 1   
     8     4     5 2   
     9     4    17 1   
    10     5    13 1   
    11     5    18 1   
    12     6     7 ar  
    13     6     9 ar  
    14     6    21 1   
    15     7     8 1   
    16     7    12 ar  
    17     9    10 ar  
    18     9    22 1   
    19    10    11 ar  
    20    10    23 1   
    21    11    12 ar  
    22    11    24 1   
    23    12    27 1   
    24    13    27 1   
    25    15    25 1   
    26    15    26 1   
    27    19    27 1   
    28    20    27 1   
@<TRIPOS>SUBSTRUCTURE
     1 76Y         1 TEMP              0 ****  ****    0 ROOT
