@<TRIPOS>MOLECULE
76Y
   27    28     1     0     0
SMALL
bcc


@<TRIPOS>ATOM
      1 C1          -2.9380    -0.8360     0.4710 c          1 76Y       0.706700
      2 C2          -2.1600     0.1050    -0.3530 cc         1 76Y      -0.206900
      3 C3          -2.5610     0.5750    -1.5850 cd         1 76Y      -0.120000
      4 C4          -1.5980     1.5020    -2.0210 cd         1 76Y      -0.214000
      5 C5          -0.6280     1.5550    -1.0490 cc         1 76Y      -0.136300
      6 C11          3.2490    -0.5310    -0.4240 ca         1 76Y      -0.122000
      7 C12          1.9070    -0.5390    -0.0840 ca         1 76Y       0.047400
      8 CL           0.8990    -1.8120    -0.6900 cl         1 76Y      -0.085400
      9 C10          4.0660     0.4830     0.0610 ca         1 76Y      -0.107000
     10 C9           3.5380     1.4740     0.8740 ca         1 76Y      -0.130000
     11 C8           2.1890     1.4510     1.1990 ca         1 76Y      -0.108000
     12 C7           1.3500     0.4470     0.7290 ca         1 76Y      -0.114300
     13 N2          -0.9680     0.7160    -0.0380 na         1 76Y      -0.033100
     14 O           -3.6780    -1.6510    -0.0630 o          1 76Y      -0.590100
     15 N1          -2.8140    -0.7450     1.8120 nt         1 76Y      -0.672000
     16 H1          -3.4710     0.2920    -2.0920 ha         1 76Y       0.164000
     17 H2          -1.6040     2.0690    -2.9380 ha         1 76Y       0.154000
     18 H3           0.2880     2.1230    -1.0180 h4         1 76Y       0.166000
     19 H4          -0.3710    -0.5390     1.5060 h1         1 76Y       0.069700
     20 H5          -0.2810     1.1740     1.8890 h1         1 76Y       0.069700
     21 H6           3.6560    -1.3080    -1.0560 ha         1 76Y       0.152000
     22 H7           5.1150     0.4910    -0.2030 ha         1 76Y       0.140000
     23 H8           4.1710     2.2640     1.2540 ha         1 76Y       0.140000
     24 H9           1.7720     2.2280     1.8270 ha         1 76Y       0.135000
     25 H10         -3.4150    -1.3170     2.3840 hn         1 76Y       0.305000
     26 H11         -2.4540     0.0840     2.2540 hn         1 76Y       0.305000
     27 C6          -0.1040     0.4370     1.1030 c3         1 76Y       0.086600
@<TRIPOS>BOND
     1     1     2 1   
     2     1    14 2   
     3     1    15 1   
     4     2     3 2   
     5     2    13 1   
     6     3     4 1   
     7     3    16 1   
     8     4     5 2   
     9     4    17 1   
    10     5    13 1   
    11     5    18 1   
    12     6     7 ar  
    13     6     9 ar  
    14     6    21 1   
    15     7     8 1   
    16     7    12 ar  
    17     9    10 ar  
    18     9    22 1   
    19    10    11 ar  
    20    10    23 1   
    21    11    12 ar  
    22    11    24 1   
    23    12    27 1   
    24    13    27 1   
    25    15    25 1   
    26    15    26 1   
    27    19    27 1   
    28    20    27 1   
@<TRIPOS>SUBSTRUCTURE
     1 76Y         1 TEMP              0 ****  ****    0 ROOT
