@<TRIPOS>MOLECULE
76Z
   40    42     1     0     0
SMALL
No Charge or Current Charge


@<TRIPOS>ATOM
      1 C4          -3.1310     0.0460    -0.0330 cg         1 76Z      -0.110000
      2 C14          0.5380     0.8520    -0.0750 ca         1 76Z      -0.157500
      3 C5          -1.9080     0.7890    -0.1180 ca         1 76Z       0.020000
      4 C6          -1.9410     2.1820    -0.3150 ca         1 76Z      -0.068000
      5 C11          3.9630    -0.2000     0.4580 cc         1 76Z      -0.139000
      6 C7          -0.7400     2.9040    -0.4190 ca         1 76Z      -0.127000
      7 C8           0.4920     2.2450    -0.2920 ca         1 76Z       0.126100
      8 C9           2.5970     3.2420     0.5330 c3         1 76Z       0.159600
      9 C10          2.9610     1.9730     1.3410 c3         1 76Z       0.030600
     10 C12          3.4150    -1.2930    -0.1750 cd         1 76Z       0.166500
     11 C13          1.8240     0.1640    -0.0110 cc         1 76Z       0.467000
     12 N1           2.0680    -1.0600    -0.4500 nd         1 76Z      -0.654000
     13 N2           3.5570    -3.5210    -1.0940 nt         1 76Z      -0.599000
     14 C3          -4.1660    -0.5840     0.0480 c1         1 76Z      -0.146100
     15 O2           5.4140    -2.6680    -0.1990 o          1 76Z      -0.616100
     16 C16          4.2310    -2.5240    -0.4730 c          1 76Z       0.548600
     17 N            2.9390     0.7140     0.5790 na         1 76Z      -0.158500
     18 O1           1.6480     2.9560    -0.5200 os         1 76Z      -0.357100
     19 C15         -0.6710     0.1260    -0.0150 ca         1 76Z      -0.038000
     20 C1          -5.4280    -1.3250     0.1890 c3         1 76Z       0.275100
     21 O           -5.7650    -1.8810    -1.0780 oh         1 76Z      -0.647000
     22 C2          -5.2630    -2.4860     1.1920 c3         1 76Z      -0.098600
     23 C           -6.5670    -0.3730     0.6150 c3         1 76Z      -0.098600
     24 H1          -2.8940     2.6990    -0.4080 ha         1 76Z       0.124000
     25 H2           4.9650    -0.0310     0.8350 h4         1 76Z       0.176000
     26 H3          -0.7650     3.9740    -0.6100 ha         1 76Z       0.131000
     27 H4           2.1970     4.0000     1.2190 h1         1 76Z       0.062200
     28 H5           3.5140     3.6520     0.0900 h1         1 76Z       0.062200
     29 H6           3.9550     2.1080     1.7870 h1         1 76Z       0.072700
     30 H7           2.2470     1.8750     2.1680 h1         1 76Z       0.072700
     31 H8           4.0330    -4.3790    -1.3280 hn         1 76Z       0.323500
     32 H9           2.5800    -3.3900    -1.3150 hn         1 76Z       0.323500
     33 H10         -0.6490    -0.9530     0.1240 ha         1 76Z       0.141000
     34 H11         -5.5650    -1.1840    -1.7390 ho         1 76Z       0.448000
     35 H12         -5.0010    -2.1080     2.1880 hc         1 76Z       0.048033
     36 H13         -6.1940    -3.0580     1.2810 hc         1 76Z       0.048033
     37 H14         -4.4720    -3.1750     0.8710 hc         1 76Z       0.048033
     38 H15         -6.6970     0.4390    -0.1110 hc         1 76Z       0.048033
     39 H16         -7.5170    -0.9150     0.6930 hc         1 76Z       0.048033
     40 H17         -6.3530     0.0760     1.5930 hc         1 76Z       0.048033
@<TRIPOS>BOND
     1     1     3 1   
     2     1    14 3   
     3     2     7 ar  
     4     2    11 1   
     5     2    19 ar  
     6     3     4 ar  
     7     3    19 ar  
     8     4     6 ar  
     9     4    24 1   
    10     5    10 2   
    11     5    17 1   
    12     5    25 1   
    13     6     7 ar  
    14     6    26 1   
    15     7    18 1   
    16     8     9 1   
    17     8    18 1   
    18     8    27 1   
    19     8    28 1   
    20     9    17 1   
    21     9    29 1   
    22     9    30 1   
    23    10    12 1   
    24    10    16 1   
    25    11    12 2   
    26    11    17 1   
    27    13    16 1   
    28    13    31 1   
    29    13    32 1   
    30    14    20 1   
    31    15    16 2   
    32    19    33 1   
    33    20    21 1   
    34    20    22 1   
    35    20    23 1   
    36    21    34 1   
    37    22    35 1   
    38    22    36 1   
    39    22    37 1   
    40    23    38 1   
    41    23    39 1   
    42    23    40 1   
@<TRIPOS>SUBSTRUCTURE
     1 76Z         1 TEMP              0 ****  ****    0 ROOT
