@<TRIPOS>MOLECULE
76Z
   40    42     1     0     0
SMALL
bcc


@<TRIPOS>ATOM
      1 C4          -3.0910     0.0760    -0.0810 cg         1 76Z      -0.110000
      2 C14          0.5530     0.8290    -0.1710 ca         1 76Z      -0.157500
      3 C5          -1.8670     0.7970    -0.2010 ca         1 76Z       0.020000
      4 C6          -1.8690     2.1780    -0.4180 ca         1 76Z      -0.086000
      5 C11          3.8830    -0.1900     0.6590 cc         1 76Z      -0.171600
      6 C7          -0.6810     2.8770    -0.5200 ca         1 76Z      -0.145000
      7 C8           0.5310     2.2100    -0.4050 ca         1 76Z       0.126100
      8 C9           2.5950     3.1250     0.4160 c3         1 76Z       0.136400
      9 C10          2.7430     1.9520     1.3710 c3         1 76Z       0.001300
     10 C12          3.4230    -1.2690    -0.0460 cd         1 76Z       0.231800
     11 C13          1.8260     0.1330    -0.0250 cc         1 76Z       0.467000
     12 N1           2.1410    -1.0560    -0.4600 nd         1 76Z      -0.654000
     13 N2           3.4990    -3.4050    -1.0660 nt         1 76Z      -0.666000
     14 C3          -4.1200    -0.5410     0.0340 c1         1 76Z      -0.146100
     15 O2           5.3260    -2.6490     0.0500 o          1 76Z      -0.616100
     16 C16          4.1840    -2.4980    -0.3420 c          1 76Z       0.615600
     17 N            2.8550     0.6980     0.6650 na         1 76Z      -0.179900
     18 O1           1.6830     2.8890    -0.6380 os         1 76Z      -0.333900
     19 C15         -0.6460     0.1340    -0.0840 ca         1 76Z      -0.056000
     20 C1          -5.3850    -1.2820     0.1770 c3         1 76Z       0.251900
     21 O           -5.8550    -1.7010    -1.0870 oh         1 76Z      -0.584800
     22 C2          -5.1460    -2.5540     0.9860 c3         1 76Z      -0.098600
     23 C           -6.4130    -0.3900     0.8780 c3         1 76Z      -0.098600
     24 H1          -2.8080     2.7060    -0.5110 ha         1 76Z       0.142000
     25 H2           4.8270     0.0020     1.1390 h4         1 76Z       0.194000
     26 H3          -0.6890     3.9410    -0.7100 ha         1 76Z       0.149000
     27 H4           2.3040     4.0100     0.9930 h1         1 76Z       0.062200
     28 H5           3.5470     3.3380    -0.0690 h1         1 76Z       0.062200
     29 H6           3.6290     2.0960     1.9870 h1         1 76Z       0.072700
     30 H7           1.8880     1.8930     2.0480 h1         1 76Z       0.072700
     31 H8           3.9400    -4.2640    -1.3390 hn         1 76Z       0.323500
     32 H9           2.5680    -3.2050    -1.3850 hn         1 76Z       0.323500
     33 H10         -0.6230    -0.9340     0.0830 ha         1 76Z       0.159000
     34 H11         -6.0030    -0.9230    -1.6330 ho         1 76Z       0.409000
     35 H12         -4.7740    -2.3130     1.9810 hc         1 76Z       0.048033
     36 H13         -6.0800    -3.1060     1.0920 hc         1 76Z       0.048033
     37 H14         -4.4180    -3.1970     0.4940 hc         1 76Z       0.048033
     38 H15         -6.6090     0.5190     0.3050 hc         1 76Z       0.048033
     39 H16         -7.3530    -0.9300     0.9970 hc         1 76Z       0.048033
     40 H17         -6.0630    -0.0860     1.8640 hc         1 76Z       0.048033
@<TRIPOS>BOND
     1     1     3 1   
     2     1    14 3   
     3     2     7 ar  
     4     2    11 1   
     5     2    19 ar  
     6     3     4 ar  
     7     3    19 ar  
     8     4     6 ar  
     9     4    24 1   
    10     5    10 2   
    11     5    17 1   
    12     5    25 1   
    13     6     7 ar  
    14     6    26 1   
    15     7    18 1   
    16     8     9 1   
    17     8    18 1   
    18     8    27 1   
    19     8    28 1   
    20     9    17 1   
    21     9    29 1   
    22     9    30 1   
    23    10    12 1   
    24    10    16 1   
    25    11    12 2   
    26    11    17 1   
    27    13    16 1   
    28    13    31 1   
    29    13    32 1   
    30    14    20 1   
    31    15    16 2   
    32    19    33 1   
    33    20    21 1   
    34    20    22 1   
    35    20    23 1   
    36    21    34 1   
    37    22    35 1   
    38    22    36 1   
    39    22    37 1   
    40    23    38 1   
    41    23    39 1   
    42    23    40 1   
@<TRIPOS>SUBSTRUCTURE
     1 76Z         1 TEMP              0 ****  ****    0 ROOT
