@<TRIPOS>MOLECULE
770
   40    44     1     0     0
SMALL
No Charge or Current Charge


@<TRIPOS>ATOM
      1 Cl1         -3.4860    -0.5490     2.1860 cl         1 770      -0.194000
      2 C8          -4.2000     0.2060     0.7600 ca         1 770       0.153000
      3 C9          -5.6000     0.3080     0.6900 ca         1 770      -0.103000
      4 C10         -6.2110     0.9280    -0.4130 ca         1 770      -0.092000
      5 C11         -5.4200     1.4540    -1.4470 ca         1 770      -0.112000
      6 C12         -4.0200     1.3550    -1.3800 ca         1 770      -0.086000
      7 C7          -3.3870     0.7220    -0.2830 cp         1 770      -0.040000
      8 C2          -1.9020     0.6330    -0.2330 cp         1 770       0.058000
      9 C3          -1.1880    -0.5870    -0.3670 ca         1 770      -0.169600
     10 C6          -1.7500    -1.9450    -0.6140 c          1 770       0.593600
     11 O2          -2.9090    -2.2970    -0.7580 o          1 770      -0.484000
     12 N1          -0.6380    -2.7390    -0.6710 ns         1 770      -0.490500
     13 C4           0.1970    -0.6880    -0.3140 ca         1 770      -0.077600
     14 C5           0.5730    -2.1210    -0.5100 c          1 770       0.584600
     15 O1           1.6660    -2.6570    -0.5340 o          1 770      -0.478000
     16 C13          0.9960     0.4590    -0.1230 cp         1 770      -0.031000
     17 C14          0.3030     1.6730    -0.0010 ca         1 770       0.011800
     18 C1          -1.1030     1.7990    -0.0520 ca         1 770      -0.133000
     19 C15          2.4350     0.7460    -0.0210 cp         1 770      -0.060000
     20 C16          2.5740     2.1220     0.1590 ca         1 770      -0.027200
     21 N2           1.2810     2.6600     0.1690 na         1 770      -0.226600
     22 C18          3.8090     2.7570     0.2960 ca         1 770      -0.117000
     23 C20          4.9620     1.9500     0.2480 ca         1 770      -0.123000
     24 C17          3.5920    -0.0640    -0.0680 ca         1 770      -0.060000
     25 C19          4.8690     0.5470     0.0680 ca         1 770      -0.060000
     26 N3           6.0930    -0.1820     0.0350 ns         1 770      -0.155000
     27 C21          6.3760    -1.5340    -0.1150 c          1 770       0.599900
     28 O3           5.5400    -2.4210    -0.2570 o          1 770      -0.564100
     29 H9          -6.2120    -0.0910     1.4960 ha         1 770       0.131000
     30 H10         -7.2960     1.0050    -0.4630 ha         1 770       0.119000
     31 H11         -5.8910     1.9390    -2.3000 ha         1 770       0.118000
     32 H12         -3.4140     1.7640    -2.1860 ha         1 770       0.118000
     33 HN1         -0.7070    -3.7320    -0.8340 hn         1 770       0.347500
     34 H1          -1.5730     2.7730     0.0530 ha         1 770       0.127000
     35 HN2          1.0770     3.6460     0.2850 hn         1 770       0.358000
     36 H18          3.8780     3.8340     0.4350 ha         1 770       0.120000
     37 H20          5.9390     2.4190     0.3520 ha         1 770       0.110000
     38 H17          3.4970    -1.1310    -0.2040 ha         1 770       0.177000
     39 HN3          6.9150     0.3980     0.1400 hn         1 770       0.148000
     40 H21          7.4650    -1.7250    -0.0910 h5         1 770       0.011200
@<TRIPOS>BOND
     1     1     2 1   
     2     2     3 ar  
     3     2     7 ar  
     4     3     4 ar  
     5     3    29 1   
     6     4     5 ar  
     7     4    30 1   
     8     5     6 ar  
     9     5    31 1   
    10     6     7 ar  
    11     6    32 1   
    12     7     8 1   
    13     8     9 ar  
    14     8    18 ar  
    15     9    10 1   
    16     9    13 ar  
    17    10    11 2   
    18    10    12 1   
    19    12    14 1   
    20    12    33 1   
    21    13    14 1   
    22    13    16 ar  
    23    14    15 2   
    24    16    17 ar  
    25    16    19 1   
    26    17    18 ar  
    27    17    21 1   
    28    18    34 1   
    29    19    20 ar  
    30    19    24 ar  
    31    20    21 1   
    32    20    22 ar  
    33    21    35 1   
    34    22    23 ar  
    35    22    36 1   
    36    23    25 ar  
    37    23    37 1   
    38    24    25 ar  
    39    24    38 1   
    40    25    26 1   
    41    26    27 1   
    42    26    39 1   
    43    27    28 2   
    44    27    40 1   
@<TRIPOS>SUBSTRUCTURE
     1 770         1 TEMP              0 ****  ****    0 ROOT
