@<TRIPOS>MOLECULE
770
   40    44     1     0     0
SMALL
abcg2


@<TRIPOS>ATOM
      1 CL1         -3.4360    -0.6250     2.0770 cl         1 770      -0.194000
      2 C8          -4.1410     0.1920     0.7220 ca         1 770       0.153000
      3 C9          -5.5180     0.3370     0.6780 ca         1 770      -0.103000
      4 C10         -6.0990     1.0120    -0.3850 ca         1 770      -0.092000
      5 C11         -5.3030     1.5430    -1.3890 ca         1 770      -0.112000
      6 C12         -3.9260     1.3920    -1.3290 ca         1 770      -0.086000
      7 C7          -3.3200     0.7080    -0.2790 cp         1 770      -0.040000
      8 C2          -1.8460     0.5930    -0.2340 cp         1 770       0.058000
      9 C3          -1.1770    -0.6250    -0.3660 ca         1 770      -0.169600
     10 C6          -1.7300    -1.9760    -0.6070 c          1 770       0.593600
     11 O2          -2.8770    -2.3190    -0.7430 o          1 770      -0.484000
     12 N1          -0.6340    -2.8200    -0.6670 ns         1 770      -0.490500
     13 C4           0.2050    -0.7290    -0.3230 ca         1 770      -0.077600
     14 C5           0.5630    -2.1590    -0.5080 c          1 770       0.584600
     15 O1           1.6560    -2.6700    -0.5230 o          1 770      -0.478000
     16 C13          1.0000     0.3920    -0.1460 cp         1 770      -0.031000
     17 C14          0.3100     1.6300    -0.0300 ca         1 770       0.011800
     18 C1          -1.0780     1.7380    -0.0710 ca         1 770      -0.133000
     19 C15          2.4050     0.6940    -0.0430 cp         1 770      -0.060000
     20 C16          2.4870     2.0880     0.1270 ca         1 770      -0.027200
     21 N2           1.2230     2.6220     0.1300 na         1 770      -0.226600
     22 C18          3.7120     2.7280     0.2650 ca         1 770      -0.117000
     23 C20          4.8480     1.9490     0.2310 ca         1 770      -0.123000
     24 C17          3.5640    -0.0850    -0.0760 ca         1 770      -0.060000
     25 C19          4.7900     0.5520     0.0620 ca         1 770      -0.060000
     26 N3           6.0210    -0.1170     0.0460 ns         1 770      -0.155000
     27 C21          6.2830    -1.4330    -0.0810 c          1 770       0.599900
     28 O3           5.4690    -2.3260    -0.2100 o          1 770      -0.564100
     29 H9          -6.1300    -0.0690     1.4710 ha         1 770       0.131000
     30 H10         -7.1750     1.1250    -0.4200 ha         1 770       0.119000
     31 H11         -5.7520     2.0720    -2.2190 ha         1 770       0.118000
     32 H12         -3.3050     1.8030    -2.1150 ha         1 770       0.118000
     33 HN1         -0.7050    -3.8170    -0.8180 hn         1 770       0.347500
     34 H1          -1.5540     2.7040     0.0390 ha         1 770       0.127000
     35 HN2          1.0060     3.6000     0.2350 hn         1 770       0.358000
     36 H18          3.7830     3.8000     0.3950 ha         1 770       0.120000
     37 H20          5.8130     2.4290     0.3400 ha         1 770       0.110000
     38 H17          3.4970    -1.1510    -0.2030 ha         1 770       0.177000
     39 HN3          6.8360     0.4700     0.1500 hn         1 770       0.148000
     40 H21          7.3660    -1.6190    -0.0530 h5         1 770       0.011200
@<TRIPOS>BOND
     1     1     2 1   
     2     2     3 ar  
     3     2     7 ar  
     4     3     4 ar  
     5     3    29 1   
     6     4     5 ar  
     7     4    30 1   
     8     5     6 ar  
     9     5    31 1   
    10     6     7 ar  
    11     6    32 1   
    12     7     8 1   
    13     8     9 ar  
    14     8    18 ar  
    15     9    10 1   
    16     9    13 ar  
    17    10    11 2   
    18    10    12 1   
    19    12    14 1   
    20    12    33 1   
    21    13    14 1   
    22    13    16 ar  
    23    14    15 2   
    24    16    17 ar  
    25    16    19 1   
    26    17    18 ar  
    27    17    21 1   
    28    18    34 1   
    29    19    20 ar  
    30    19    24 ar  
    31    20    21 1   
    32    20    22 ar  
    33    21    35 1   
    34    22    23 ar  
    35    22    36 1   
    36    23    25 ar  
    37    23    37 1   
    38    24    25 ar  
    39    24    38 1   
    40    25    26 1   
    41    26    27 1   
    42    26    39 1   
    43    27    28 2   
    44    27    40 1   
@<TRIPOS>SUBSTRUCTURE
     1 770         1 TEMP              0 ****  ****    0 ROOT
