@<TRIPOS>MOLECULE
771
   58    60     1     0     0
SMALL
No Charge or Current Charge


@<TRIPOS>ATOM
      1 C1          -0.4180     0.0550    -8.2150 ce         1 771       0.666800
      2 N1          -0.7430     1.0760    -8.8930 n2         1 771      -0.832100
      3 N2          -0.2170    -1.1100    -8.8650 nv         1 771      -1.073200
      4 C2          -0.1160     0.1030    -6.7500 ca         1 771      -0.191900
      5 C3           0.1660     1.3370    -6.1210 ca         1 771      -0.031500
      6 C4           0.4180     1.3960    -4.7400 ca         1 771      -0.197000
      7 C5           0.3840     0.2330    -3.9630 ca         1 771       0.318000
      8 N3           0.6260     0.3220    -2.5960 nu         1 771      -0.970200
      9 C8           1.4560    -0.6210    -1.8260 c3         1 771       0.262100
     10 C15         -0.4730    -0.1580     4.5220 c3         1 771       0.202900
     11 C16         -0.2410     0.0550     6.0120 ca         1 771      -0.094300
     12 C17         -0.3300     1.3480     6.5670 ca         1 771      -0.082000
     13 C18         -0.1160     1.5440     7.9430 ca         1 771      -0.115500
     14 C19          0.1890     0.4510     8.7710 ca         1 771      -0.098000
     15 C21          0.0670    -1.0370     6.8470 ca         1 771      -0.082000
     16 C20          0.2810    -0.8400     8.2220 ca         1 771      -0.115500
     17 C9           1.2440    -0.4250    -0.3250 ca         1 771      -0.144300
     18 C13         -0.1960    -0.4410     1.6430 ca         1 771      -0.181000
     19 C14         -0.0380    -0.5630     0.2520 ca         1 771       0.290000
     20 N4          -1.1100    -0.8100    -0.5960 nu         1 771      -0.888100
     21 S1          -2.6310    -0.1580    -0.5280 s6         1 771       1.201100
     22 C22         -2.3690     1.5990    -0.4150 c3         1 771      -0.373100
     23 O5          -3.2260    -0.4610    -1.8290 o          1 771      -0.532500
     24 O4          -3.2510    -0.6440     0.7060 o          1 771      -0.532500
     25 C12          0.9130    -0.1560     2.4690 ca         1 771       0.144100
     26 O3           0.7860    -0.0230     3.8420 os         1 771      -0.318100
     27 C10          2.3540    -0.1400     0.4970 ca         1 771      -0.153000
     28 C11          2.1950     0.0020     1.8930 ca         1 771       0.105100
     29 O2           3.2660     0.2820     2.7260 os         1 771      -0.313100
     30 C23          4.6050     0.4600     2.2330 c3         1 771       0.143900
     31 C6           0.0740    -0.9930    -4.5670 ca         1 771      -0.197000
     32 C7          -0.1800    -1.0610    -5.9480 ca         1 771      -0.031500
     33 H1N         -1.0830     0.7550    -9.8060 hn         1 771       0.370400
     34 H2N1        -0.0080    -1.0320    -9.8530 hn         1 771       0.457000
     35 H2N2         0.3350    -1.7960    -8.3630 hn         1 771       0.457000
     36 H3           0.1990     2.2560    -6.7040 ha         1 771       0.126000
     37 H4           0.6420     2.3530    -4.2770 ha         1 771       0.114000
     38 HA           0.7200     1.2890    -2.2800 hn         1 771       0.474000
     39 H8C1         2.5150    -0.4840    -2.0860 h1         1 771       0.045700
     40 H8C2         1.1920    -1.6580    -2.0740 h1         1 771       0.045700
     41 H151        -1.1930     0.5850     4.1550 h1         1 771       0.049700
     42 H152        -0.8980    -1.1570     4.3580 h1         1 771       0.049700
     43 H17         -0.5640     2.2000     5.9320 ha         1 771       0.115000
     44 H18         -0.1860     2.5440     8.3660 ha         1 771       0.114000
     45 H19          0.3550     0.6030     9.8350 ha         1 771       0.112000
     46 H21          0.1430    -2.0390     6.4290 ha         1 771       0.115000
     47 H20          0.5190    -1.6870     8.8620 ha         1 771       0.114000
     48 H13         -1.1780    -0.5770     2.0760 ha         1 771       0.156000
     49 HB          -0.8460    -0.6240    -1.5640 hn         1 771       0.499000
     50 H221        -3.3540     2.0740    -0.3900 h1         1 771       0.105033
     51 H222        -1.8110     1.7940     0.5050 h1         1 771       0.105033
     52 H223        -1.8030     1.9060    -1.3000 h1         1 771       0.105033
     53 H10          3.3320    -0.0380     0.0360 ha         1 771       0.121000
     54 H231         5.2900     0.6770     3.0620 h1         1 771       0.041367
     55 H232         4.9590    -0.4490     1.7300 h1         1 771       0.041367
     56 H233         4.6530     1.2970     1.5250 h1         1 771       0.041367
     57 H6           0.0120    -1.8980    -3.9710 ha         1 771       0.114000
     58 H7          -0.4400    -2.0240    -6.3840 ha         1 771       0.126000
@<TRIPOS>BOND
     1     1     2 2   
     2     1     3 1   
     3     1     4 1   
     4     2    33 1   
     5     3    34 1   
     6     3    35 1   
     7     4     5 ar  
     8     4    32 ar  
     9     5     6 ar  
    10     5    36 1   
    11     6     7 ar  
    12     6    37 1   
    13     7     8 1   
    14     7    31 ar  
    15     8     9 1   
    16     8    38 1   
    17     9    17 1   
    18     9    39 1   
    19     9    40 1   
    20    10    11 1   
    21    10    26 1   
    22    10    41 1   
    23    10    42 1   
    24    11    12 ar  
    25    11    15 ar  
    26    12    13 ar  
    27    12    43 1   
    28    13    14 ar  
    29    13    44 1   
    30    14    16 ar  
    31    14    45 1   
    32    15    16 ar  
    33    15    46 1   
    34    16    47 1   
    35    17    19 ar  
    36    17    27 ar  
    37    18    19 ar  
    38    18    25 ar  
    39    18    48 1   
    40    19    20 1   
    41    20    21 1   
    42    20    49 1   
    43    21    22 1   
    44    21    23 2   
    45    21    24 2   
    46    22    50 1   
    47    22    51 1   
    48    22    52 1   
    49    25    26 1   
    50    25    28 ar  
    51    27    28 ar  
    52    27    53 1   
    53    28    29 1   
    54    29    30 1   
    55    30    54 1   
    56    30    55 1   
    57    30    56 1   
    58    31    32 ar  
    59    31    57 1   
    60    32    58 1   
@<TRIPOS>SUBSTRUCTURE
     1 771         1 TEMP              0 ****  ****    0 ROOT
