@<TRIPOS>MOLECULE
771
   58    60     1     0     0
SMALL
abcg2


@<TRIPOS>ATOM
      1 C1          -0.2730     0.5100    -8.0290 ce         1 771       0.666800
      2 N1          -0.9670     1.4930    -8.4640 n2         1 771      -0.832100
      3 N2           0.2340    -0.5030    -8.7980 nv         1 771      -1.073200
      4 C2          -0.0240     0.3950    -6.5720 ca         1 771      -0.191900
      5 C3          -0.1630     1.5190    -5.7530 ca         1 771      -0.031500
      6 C4           0.0560     1.4490    -4.3950 ca         1 771      -0.197000
      7 C5           0.4210     0.2380    -3.7820 ca         1 771       0.318000
      8 N3           0.5840     0.2050    -2.4220 nu         1 771      -0.970200
      9 C8           1.1640    -0.9190    -1.7240 c3         1 771       0.262100
     10 C15         -0.4060    -0.1820     4.5500 c3         1 771       0.202900
     11 C16         -0.1410     0.1670     5.9820 ca         1 771      -0.094300
     12 C17         -0.0310     1.5000     6.3700 ca         1 771      -0.082000
     13 C18          0.2380     1.8290     7.6910 ca         1 771      -0.115500
     14 C19          0.4000     0.8250     8.6380 ca         1 771      -0.098000
     15 C21          0.0250    -0.8320     6.9350 ca         1 771      -0.082000
     16 C20          0.2920    -0.5060     8.2590 ca         1 771      -0.115500
     17 C9           1.0150    -0.7270    -0.2390 ca         1 771      -0.144300
     18 C13         -0.2900    -0.6680     1.7920 ca         1 771      -0.181000
     19 C14         -0.2070    -0.8570     0.4100 ca         1 771       0.290000
     20 N4          -1.3660    -1.2630    -0.2950 nu         1 771      -0.888100
     21 S1          -2.7420    -0.3390    -0.3970 s6         1 771       1.201100
     22 C22         -2.3370     1.1500    -1.2780 c3         1 771      -0.373100
     23 O5          -3.6560    -1.1250    -1.2100 o          1 771      -0.532500
     24 O4          -3.1260     0.0410     0.9530 o          1 771      -0.532500
     25 C12          0.8260    -0.3060     2.5250 ca         1 771       0.144100
     26 O3           0.8300    -0.0870     3.8520 os         1 771      -0.318100
     27 C10          2.1420    -0.3940     0.5160 ca         1 771      -0.153000
     28 C11          2.0700    -0.1720     1.8790 ca         1 771       0.105100
     29 O2           3.1070     0.1590     2.6670 os         1 771      -0.313100
     30 C23          4.3850     0.2700     2.0730 c3         1 771       0.143900
     31 C6           0.5610    -0.8910    -4.5970 ca         1 771      -0.197000
     32 C7           0.3360    -0.8040    -5.9620 ca         1 771      -0.031500
     33 H1N         -1.0300     1.4750    -9.4790 hn         1 771       0.370400
     34 H2N1         0.2070    -0.3720    -9.7970 hn         1 771       0.457000
     35 H2N2         1.0720    -0.9640    -8.4850 hn         1 771       0.457000
     36 H3          -0.4430     2.4650    -6.1970 ha         1 771       0.126000
     37 H4          -0.0530     2.3410    -3.7880 ha         1 771       0.114000
     38 HA           0.7740     1.0990    -1.9960 hn         1 771       0.474000
     39 H8C1         2.2240    -1.0600    -1.9680 h1         1 771       0.045700
     40 H8C2         0.6650    -1.8380    -2.0450 h1         1 771       0.045700
     41 H151        -1.1370     0.5060     4.1120 h1         1 771       0.049700
     42 H152        -0.8110    -1.1960     4.4720 h1         1 771       0.049700
     43 H17         -0.1620     2.2860     5.6360 ha         1 771       0.115000
     44 H18          0.3180     2.8680     7.9820 ha         1 771       0.114000
     45 H19          0.6050     1.0810     9.6690 ha         1 771       0.112000
     46 H21         -0.0600    -1.8710     6.6430 ha         1 771       0.115000
     47 H20          0.4150    -1.2920     8.9930 ha         1 771       0.114000
     48 H13         -1.2360    -0.8330     2.2830 ha         1 771       0.156000
     49 HB          -1.2000    -1.7710    -1.1550 hn         1 771       0.499000
     50 H221        -3.2310     1.7710    -1.2820 h1         1 771       0.105033
     51 H222        -1.5290     1.6690    -0.7680 h1         1 771       0.105033
     52 H223        -2.0470     0.9010    -2.2950 h1         1 771       0.105033
     53 H10          3.0880    -0.3040    -0.0020 ha         1 771       0.121000
     54 H231         5.0770     0.5150     2.8750 h1         1 771       0.041367
     55 H232         4.7020    -0.6660     1.6070 h1         1 771       0.041367
     56 H233         4.4200     1.0650     1.3240 h1         1 771       0.041367
     57 H6           0.8480    -1.8470    -4.1800 ha         1 771       0.114000
     58 H7           0.4380    -1.7110    -6.5460 ha         1 771       0.126000
@<TRIPOS>BOND
     1     1     2 2   
     2     1     3 1   
     3     1     4 1   
     4     2    33 1   
     5     3    34 1   
     6     3    35 1   
     7     4     5 ar  
     8     4    32 ar  
     9     5     6 ar  
    10     5    36 1   
    11     6     7 ar  
    12     6    37 1   
    13     7     8 1   
    14     7    31 ar  
    15     8     9 1   
    16     8    38 1   
    17     9    17 1   
    18     9    39 1   
    19     9    40 1   
    20    10    11 1   
    21    10    26 1   
    22    10    41 1   
    23    10    42 1   
    24    11    12 ar  
    25    11    15 ar  
    26    12    13 ar  
    27    12    43 1   
    28    13    14 ar  
    29    13    44 1   
    30    14    16 ar  
    31    14    45 1   
    32    15    16 ar  
    33    15    46 1   
    34    16    47 1   
    35    17    19 ar  
    36    17    27 ar  
    37    18    19 ar  
    38    18    25 ar  
    39    18    48 1   
    40    19    20 1   
    41    20    21 1   
    42    20    49 1   
    43    21    22 1   
    44    21    23 2   
    45    21    24 2   
    46    22    50 1   
    47    22    51 1   
    48    22    52 1   
    49    25    26 1   
    50    25    28 ar  
    51    27    28 ar  
    52    27    53 1   
    53    28    29 1   
    54    29    30 1   
    55    30    54 1   
    56    30    55 1   
    57    30    56 1   
    58    31    32 ar  
    59    31    57 1   
    60    32    58 1   
@<TRIPOS>SUBSTRUCTURE
     1 771         1 TEMP              0 ****  ****    0 ROOT
