@<TRIPOS>MOLECULE
773
  114   118     1     0     0
SMALL
No Charge or Current Charge


@<TRIPOS>ATOM
      1 O3          43.6910   121.0480   119.8850 oh         1 773      -0.718000
      2 C9          44.7620   121.7210   119.1920 c6         1 773       0.150300
      3 C8          45.3180   122.9990   119.9030 c6         1 773       0.390300
      4 O1          46.3780   123.5560   119.0940 os         1 773      -0.501000
      5 C12         47.5160   122.6840   118.9430 c6         1 773       0.184300
      6 C13         48.5840   123.4660   118.1450 c3         1 773      -0.087100
      7 C11         47.0900   121.3690   118.2360 c6         1 773      -0.132400
      8 C10         45.9250   120.7060   119.0220 c6         1 773       0.139500
      9 N1          45.4410   119.4000   118.4610 n3         1 773      -0.743600
     10 C14         44.8930   119.4640   117.0800 c3         1 773       0.154100
     11 C15         46.4200   118.2970   118.6150 c3         1 773       0.154100
     12 O2          44.2960   124.0020   120.0650 os         1 773      -0.431000
     13 C7          44.6380   125.1520   120.8700 c3         1 773       0.158300
     14 C5          44.4270   124.8240   122.3990 c3         1 773      -0.185700
     15 C4          45.7320   124.8680   123.2210 c          1 773       0.579100
     16 O10         46.8160   124.5590   122.7440 o          1 773      -0.507100
     17 C2          45.5820   125.3030   124.6810 c3         1 773      -0.225700
     18 C1          45.5960   126.8230   124.7200 c          1 773       0.602100
     19 O5          46.5670   127.5130   124.4540 o          1 773      -0.479000
     20 O4          44.3710   127.3030   125.1000 os         1 773      -0.459100
     21 C25         44.1300   128.7240   125.1940 c3         1 773       0.165300
     22 C42         44.6430   129.2080   126.5840 c3         1 773      -0.098400
     23 C43         43.9900   128.5660   127.8280 c3         1 773      -0.081100
     24 C26         42.6090   128.9750   124.8190 c5         1 773       0.180000
     25 O7          42.1620   130.2050   125.4340 os         1 773      -0.434100
     26 C24         42.3220   131.2300   124.5580 c          1 773       0.680100
     27 O6          42.1630   132.4090   124.8110 o          1 773      -0.526000
     28 N2          42.5810   130.7190   123.3270 ns         1 773      -0.516900
     29 C23         42.5040   129.2670   123.2710 c5         1 773       0.089700
     30 C22         41.2610   128.7760   122.4590 c3         1 773      -0.177700
     31 C21         41.5860   128.7730   120.9390 c          1 773       0.596100
     32 O9          41.9420   129.7990   120.3710 o          1 773      -0.535100
     33 C19         41.3690   127.4610   120.1330 c3         1 773      -0.154700
     34 C20         39.8760   127.0440   120.1610 c3         1 773      -0.087100
     35 C18         42.2870   126.2660   120.5620 c3         1 773      -0.059400
     36 C16         43.8350   126.3970   120.3220 c3         1 773       0.196000
     37 O8          44.2700   127.5820   121.0380 os         1 773      -0.502000
     38 C28         45.6580   127.9830   120.9530 c3         1 773       0.199800
     39 C29         45.7850   129.3110   121.6550 c2         1 773      -0.233200
     40 C30         45.2060   130.4650   121.2560 ce         1 773      -0.124200
     41 C31         45.2890   131.7770   121.9640 ca         1 773      -0.120800
     42 C32         45.7920   131.8970   123.2740 ca         1 773      -0.052000
     43 C33         45.7790   133.1580   123.8930 ca         1 773      -0.087000
     44 C38         45.2710   134.2760   123.1840 ca         1 773       0.272000
     45 N3          44.7970   134.1620   121.9220 nb         1 773      -0.648000
     46 C40         44.8060   132.9430   121.3350 ca         1 773       0.364900
     47 C37         45.2650   135.5310   123.8230 ca         1 773      -0.079000
     48 C36         45.7470   135.6770   125.1360 ca         1 773      -0.102000
     49 C35         46.2450   134.5620   125.8290 ca         1 773      -0.114000
     50 C34         46.2620   133.3030   125.2090 ca         1 773      -0.090000
     51 C17         44.1270   126.6220   118.8100 c3         1 773      -0.113100
     52 C41         39.9460   129.5630   122.7260 c3         1 773      -0.092100
     53 C27         41.6890   127.8280   125.3400 c3         1 773      -0.083100
     54 C3          46.6260   124.6770   125.6430 c3         1 773      -0.074100
     55 C6          43.6140   123.5300   122.7020 c3         1 773      -0.076100
     56 HO3         43.8330   120.1060   119.6100 ho         1 773       0.529000
     57 H9          44.4170   122.0310   118.1950 h1         1 773       0.059700
     58 H8          45.7190   122.7200   120.8880 h2         1 773       0.042700
     59 H12         47.9230   122.4550   119.9400 h1         1 773       0.040700
     60 H131        49.4930   122.8680   118.0140 hc         1 773       0.047367
     61 H132        48.2160   123.7400   117.1490 hc         1 773       0.047367
     62 H133        48.8650   124.3890   118.6660 hc         1 773       0.047367
     63 H111        46.7830   121.5900   117.2050 hc         1 773       0.057700
     64 H112        47.9500   120.6900   118.1760 hc         1 773       0.057700
     65 H10         46.3090   120.5110   120.0360 h1         1 773       0.062700
     66 H141        44.4700   118.4930   116.7900 h1         1 773       0.035867
     67 H142        44.0920   120.2080   116.9970 h1         1 773       0.035867
     68 H143        45.6770   119.7180   116.3540 h1         1 773       0.035867
     69 H151        45.9650   117.3360   118.3390 h1         1 773       0.035867
     70 H152        47.2980   118.4530   117.9740 h1         1 773       0.035867
     71 H153        46.7610   118.2210   119.6560 h1         1 773       0.035867
     72 H7          45.6980   125.3790   120.7030 h1         1 773       0.072700
     73 H5          43.8080   125.6070   122.8480 hc         1 773       0.088700
     74 H2          44.5740   125.0200   125.0010 hc         1 773       0.088700
     75 H25         44.7300   129.2560   124.4440 h1         1 773       0.078700
     76 H421        45.7230   129.0280   126.6340 hc         1 773       0.069200
     77 H422        44.5240   130.2960   126.6470 hc         1 773       0.069200
     78 H431        44.5230   128.8770   128.7350 hc         1 773       0.033367
     79 H432        42.9470   128.8860   127.9330 hc         1 773       0.033367
     80 H433        44.0240   127.4710   127.7740 hc         1 773       0.033367
     81 HN2         42.6570   131.3500   122.5400 hn         1 773       0.357500
     82 H23         43.3870   128.8480   122.7830 h1         1 773       0.102700
     83 H22         41.0560   127.7370   122.7290 hc         1 773       0.068700
     84 H19         41.5950   127.7030   119.0890 hc         1 773       0.076700
     85 H201        39.6950   126.2100   119.4710 hc         1 773       0.041700
     86 H202        39.5650   126.7260   121.1630 hc         1 773       0.041700
     87 H203        39.2350   127.8780   119.8500 hc         1 773       0.041700
     88 H181        42.0850   126.0420   121.6130 hc         1 773       0.060200
     89 H182        41.9530   125.3740   120.0180 hc         1 773       0.060200
     90 H281        46.3180   127.2560   121.4420 h1         1 773       0.042200
     91 H282        45.9860   128.1030   119.9130 h1         1 773       0.042200
     92 H29         46.4120   129.2670   122.5420 ha         1 773       0.179000
     93 H30         44.5990   130.4690   120.3470 ha         1 773       0.177000
     94 H32         46.1720   131.0360   123.8160 ha         1 773       0.137000
     95 H40         44.4010   132.8990   120.3250 h4         1 773       0.018100
     96 H37         44.8790   136.3980   123.2940 ha         1 773       0.133000
     97 H36         45.7340   136.6540   125.6150 ha         1 773       0.115000
     98 H35         46.6180   134.6740   126.8450 ha         1 773       0.113000
     99 H34         46.6490   132.4420   125.7510 ha         1 773       0.121000
    100 H171        43.8630   127.6390   118.5000 hc         1 773       0.053367
    101 H172        45.1860   126.4590   118.5790 hc         1 773       0.053367
    102 H173        43.5520   125.9190   118.1950 hc         1 773       0.053367
    103 H411        39.0990   129.0870   122.2170 hc         1 773       0.048700
    104 H412        39.7120   129.6030   123.7960 hc         1 773       0.048700
    105 H413        40.0190   130.5940   122.3590 hc         1 773       0.048700
    106 H271        40.6290   128.0860   125.2440 hc         1 773       0.055367
    107 H272        41.8510   126.8970   124.7840 hc         1 773       0.055367
    108 H273        41.8630   127.6050   126.3960 hc         1 773       0.055367
    109 H31         46.4420   125.0000   126.6750 hc         1 773       0.053700
    110 H32A        46.5710   123.5820   125.6140 hc         1 773       0.053700
    111 H33         47.6460   124.9770   125.3700 hc         1 773       0.053700
    112 H61         43.3340   123.4790   123.7610 hc         1 773       0.047700
    113 H62         42.6860   123.5030   122.1190 hc         1 773       0.047700
    114 H63         44.1920   122.6270   122.4750 hc         1 773       0.047700
@<TRIPOS>BOND
     1     1     2 1   
     2     1    56 1   
     3     2     3 1   
     4     2     8 1   
     5     2    57 1   
     6     3     4 1   
     7     3    12 1   
     8     3    58 1   
     9     4     5 1   
    10     5     6 1   
    11     5     7 1   
    12     5    59 1   
    13     6    60 1   
    14     6    61 1   
    15     6    62 1   
    16     7     8 1   
    17     7    63 1   
    18     7    64 1   
    19     8     9 1   
    20     8    65 1   
    21     9    10 1   
    22     9    11 1   
    23    10    66 1   
    24    10    67 1   
    25    10    68 1   
    26    11    69 1   
    27    11    70 1   
    28    11    71 1   
    29    12    13 1   
    30    13    14 1   
    31    13    36 1   
    32    13    72 1   
    33    14    15 1   
    34    14    55 1   
    35    14    73 1   
    36    15    16 2   
    37    15    17 1   
    38    17    18 1   
    39    17    54 1   
    40    17    74 1   
    41    18    19 2   
    42    18    20 1   
    43    20    21 1   
    44    21    22 1   
    45    21    24 1   
    46    21    75 1   
    47    22    23 1   
    48    22    76 1   
    49    22    77 1   
    50    23    78 1   
    51    23    79 1   
    52    23    80 1   
    53    24    25 1   
    54    24    29 1   
    55    24    53 1   
    56    25    26 1   
    57    26    27 2   
    58    26    28 1   
    59    28    29 1   
    60    28    81 1   
    61    29    30 1   
    62    29    82 1   
    63    30    31 1   
    64    30    52 1   
    65    30    83 1   
    66    31    32 2   
    67    31    33 1   
    68    33    34 1   
    69    33    35 1   
    70    33    84 1   
    71    34    85 1   
    72    34    86 1   
    73    34    87 1   
    74    35    36 1   
    75    35    88 1   
    76    35    89 1   
    77    36    37 1   
    78    36    51 1   
    79    37    38 1   
    80    38    39 1   
    81    38    90 1   
    82    38    91 1   
    83    39    40 2   
    84    39    92 1   
    85    40    41 1   
    86    40    93 1   
    87    41    42 ar  
    88    41    46 ar  
    89    42    43 ar  
    90    42    94 1   
    91    43    44 ar  
    92    43    50 ar  
    93    44    45 ar  
    94    44    47 ar  
    95    45    46 ar  
    96    46    95 1   
    97    47    48 ar  
    98    47    96 1   
    99    48    49 ar  
   100    48    97 1   
   101    49    50 ar  
   102    49    98 1   
   103    50    99 1   
   104    51   100 1   
   105    51   101 1   
   106    51   102 1   
   107    52   103 1   
   108    52   104 1   
   109    52   105 1   
   110    53   106 1   
   111    53   107 1   
   112    53   108 1   
   113    54   109 1   
   114    54   110 1   
   115    54   111 1   
   116    55   112 1   
   117    55   113 1   
   118    55   114 1   
@<TRIPOS>SUBSTRUCTURE
     1 773         1 TEMP              0 ****  ****    0 ROOT
