@<TRIPOS>MOLECULE
773
  114   118     1     0     0
SMALL
abcg2


@<TRIPOS>ATOM
      1 O3          44.1810   121.2280   120.6830 oh         1 773      -0.718000
      2 C9          44.9570   121.8110   119.6460 c6         1 773       0.150300
      3 C8          45.3790   123.2230   120.0220 c6         1 773       0.390300
      4 O1          46.1810   123.7680   118.9850 os         1 773      -0.501000
      5 C12         47.4120   123.0540   118.7740 c6         1 773       0.184300
      6 C13         48.2010   123.8280   117.7390 c3         1 773      -0.087100
      7 C11         47.1070   121.6190   118.3560 c6         1 773      -0.132400
      8 C10         46.2120   120.9630   119.4100 c6         1 773       0.139500
      9 N1          45.8160   119.5670   119.1970 n3         1 773      -0.743600
     10 C14         45.2420   119.2840   117.8860 c3         1 773       0.154100
     11 C15         46.8750   118.6210   119.5260 c3         1 773       0.154100
     12 O2          44.2460   124.0250   120.1520 os         1 773      -0.431000
     13 C7          44.4840   125.3040   120.7490 c3         1 773       0.158300
     14 C5          44.3420   125.2840   122.2900 c3         1 773      -0.185700
     15 C4          45.6750   125.4480   122.9960 c          1 773       0.579100
     16 O10         46.7430   125.2700   122.4550 o          1 773      -0.507100
     17 C2          45.6180   125.8560   124.4820 c3         1 773      -0.225700
     18 C1          45.4110   127.3620   124.5750 c          1 773       0.602100
     19 O5          46.3080   128.1710   124.5880 o          1 773      -0.479000
     20 O4          44.1150   127.6780   124.6530 os         1 773      -0.459100
     21 C25         43.7580   129.0670   124.8880 c3         1 773       0.165300
     22 C42         44.0670   129.4850   126.3320 c3         1 773      -0.098400
     23 C43         43.9710   128.3950   127.3990 c3         1 773      -0.081100
     24 C26         42.2810   129.1860   124.4320 c5         1 773       0.180000
     25 O7          41.8620   130.5400   124.7770 os         1 773      -0.434100
     26 C24         42.0160   131.3610   123.6980 c          1 773       0.680100
     27 O6          41.8360   132.5600   123.7720 o          1 773      -0.526000
     28 N2          42.3850   130.6200   122.6360 ns         1 773      -0.516900
     29 C23         42.2480   129.1940   122.8730 c5         1 773       0.089700
     30 C22         41.0090   128.5970   122.1730 c3         1 773      -0.177700
     31 C21         41.2660   128.5140   120.6630 c          1 773       0.596100
     32 O9          41.5010   129.5310   120.0340 o          1 773      -0.535100
     33 C19         41.0980   127.1790   119.9610 c3         1 773      -0.154700
     34 C20         39.6520   126.6830   120.1320 c3         1 773      -0.087100
     35 C18         42.0810   126.1060   120.4520 c3         1 773      -0.059400
     36 C16         43.5490   126.3390   120.0780 c3         1 773       0.196000
     37 O8          43.8830   127.6160   120.6520 os         1 773      -0.502000
     38 C28         45.0160   128.3320   120.1410 c3         1 773       0.199800
     39 C29         45.4470   129.2780   121.2080 c2         1 773      -0.233200
     40 C30         45.3150   130.6030   121.1240 ce         1 773      -0.124200
     41 C31         45.6280   131.5620   122.1830 ca         1 773      -0.120800
     42 C32         46.3400   131.2560   123.3220 ca         1 773      -0.052000
     43 C33         46.5030   132.2220   124.3330 ca         1 773      -0.087000
     44 C38         45.9340   133.5130   124.1270 ca         1 773       0.272000
     45 N3          45.2600   133.8220   122.9820 nb         1 773      -0.648000
     46 C40         45.1250   132.8870   122.0720 ca         1 773       0.364900
     47 C37         46.0740   134.4950   125.1340 ca         1 773      -0.079000
     48 C36         46.7490   134.2070   126.2940 ca         1 773      -0.102000
     49 C35         47.3150   132.9280   126.4990 ca         1 773      -0.114000
     50 C34         47.1970   131.9560   125.5390 ca         1 773      -0.090000
     51 C17         43.7420   126.3250   118.5620 c3         1 773      -0.113100
     52 C41         39.7190   129.4060   122.3810 c3         1 773      -0.092100
     53 C27         41.3630   128.2050   125.1290 c3         1 773      -0.083100
     54 C3          46.8740   125.4350   125.2360 c3         1 773      -0.074100
     55 C6          43.6210   124.0350   122.8320 c3         1 773      -0.076100
     56 HO3         44.3400   120.2710   120.5810 ho         1 773       0.529000
     57 H9          44.3660   121.8880   118.7250 h1         1 773       0.059700
     58 H8          45.9580   123.2090   120.9560 h2         1 773       0.042700
     59 H12         47.9640   123.0390   119.7240 h1         1 773       0.040700
     60 H131        49.1600   123.3400   117.5550 hc         1 773       0.047367
     61 H132        47.6490   123.8730   116.7970 hc         1 773       0.047367
     62 H133        48.3910   124.8460   118.0820 hc         1 773       0.047367
     63 H111        46.6130   121.6340   117.3810 hc         1 773       0.057700
     64 H112        48.0410   121.0630   118.2500 hc         1 773       0.057700
     65 H10         46.7590   120.9660   120.3580 h1         1 773       0.062700
     66 H141        44.8110   118.2810   117.8970 h1         1 773       0.035867
     67 H142        44.4470   119.9920   117.6560 h1         1 773       0.035867
     68 H143        45.9840   119.3240   117.0760 h1         1 773       0.035867
     69 H151        46.4780   117.6060   119.4870 h1         1 773       0.035867
     70 H152        47.7290   118.6770   118.8320 h1         1 773       0.035867
     71 H153        47.2400   118.8130   120.5360 h1         1 773       0.035867
     72 H7          45.5010   125.6060   120.5030 h1         1 773       0.072700
     73 H5          43.7530   126.1530   122.5900 hc         1 773       0.088700
     74 H2          44.7340   125.3950   124.9190 hc         1 773       0.088700
     75 H25         44.3550   129.6830   124.2180 h1         1 773       0.078700
     76 H421        45.0780   129.8940   126.3430 hc         1 773       0.069200
     77 H422        43.4010   130.3120   126.5790 hc         1 773       0.069200
     78 H431        44.1970   128.8280   128.3750 hc         1 773       0.033367
     79 H432        42.9800   127.9460   127.4560 hc         1 773       0.033367
     80 H433        44.6890   127.5930   127.2240 hc         1 773       0.033367
     81 HN2         42.3630   131.0010   121.7040 hn         1 773       0.357500
     82 H23         43.1200   128.6640   122.5000 h1         1 773       0.102700
     83 H22         40.8740   127.5890   122.5640 hc         1 773       0.068700
     84 H19         41.2680   127.3780   118.9030 hc         1 773       0.076700
     85 H201        39.5080   125.7860   119.5290 hc         1 773       0.041700
     86 H202        39.4370   126.4280   121.1710 hc         1 773       0.041700
     87 H203        38.9320   127.4350   119.8060 hc         1 773       0.041700
     88 H181        41.9880   126.0170   121.5350 hc         1 773       0.060200
     89 H182        41.7760   125.1450   120.0350 hc         1 773       0.060200
     90 H281        45.8290   127.6400   119.9030 h1         1 773       0.042200
     91 H282        44.7410   128.8680   119.2290 h1         1 773       0.042200
     92 H29         45.8330   128.8180   122.1110 ha         1 773       0.179000
     93 H30         44.8800   131.0260   120.2230 ha         1 773       0.177000
     94 H32         46.7610   130.2720   123.4740 ha         1 773       0.137000
     95 H40         44.5740   133.1570   121.1750 h4         1 773       0.018100
     96 H37         45.6360   135.4700   124.9660 ha         1 773       0.133000
     97 H36         46.8500   134.9630   127.0630 ha         1 773       0.115000
     98 H35         47.8430   132.7190   127.4210 ha         1 773       0.113000
     99 H34         47.6230   130.9720   125.6880 ha         1 773       0.121000
    100 H171        43.2590   127.1880   118.1050 hc         1 773       0.053367
    101 H172        44.7980   126.3360   118.2960 hc         1 773       0.053367
    102 H173        43.3040   125.4210   118.1440 hc         1 773       0.053367
    103 H411        38.8680   128.8840   121.9450 hc         1 773       0.048700
    104 H412        39.5100   129.5630   123.4380 hc         1 773       0.048700
    105 H413        39.7990   130.3810   121.9020 hc         1 773       0.048700
    106 H271        40.3380   128.3070   124.7850 hc         1 773       0.055367
    107 H272        41.6950   127.1850   124.9440 hc         1 773       0.055367
    108 H273        41.3780   128.3850   126.2020 hc         1 773       0.055367
    109 H31         46.7950   125.7200   126.2850 hc         1 773       0.053700
    110 H32A        46.9940   124.3530   125.1760 hc         1 773       0.053700
    111 H33         47.7580   125.9060   124.8110 hc         1 773       0.053700
    112 H61         43.4130   124.1400   123.8960 hc         1 773       0.047700
    113 H62         42.6730   123.9040   122.3140 hc         1 773       0.047700
    114 H63         44.2110   123.1340   122.6770 hc         1 773       0.047700
@<TRIPOS>BOND
     1     1     2 1   
     2     1    56 1   
     3     2     3 1   
     4     2     8 1   
     5     2    57 1   
     6     3     4 1   
     7     3    12 1   
     8     3    58 1   
     9     4     5 1   
    10     5     6 1   
    11     5     7 1   
    12     5    59 1   
    13     6    60 1   
    14     6    61 1   
    15     6    62 1   
    16     7     8 1   
    17     7    63 1   
    18     7    64 1   
    19     8     9 1   
    20     8    65 1   
    21     9    10 1   
    22     9    11 1   
    23    10    66 1   
    24    10    67 1   
    25    10    68 1   
    26    11    69 1   
    27    11    70 1   
    28    11    71 1   
    29    12    13 1   
    30    13    14 1   
    31    13    36 1   
    32    13    72 1   
    33    14    15 1   
    34    14    55 1   
    35    14    73 1   
    36    15    16 2   
    37    15    17 1   
    38    17    18 1   
    39    17    54 1   
    40    17    74 1   
    41    18    19 2   
    42    18    20 1   
    43    20    21 1   
    44    21    22 1   
    45    21    24 1   
    46    21    75 1   
    47    22    23 1   
    48    22    76 1   
    49    22    77 1   
    50    23    78 1   
    51    23    79 1   
    52    23    80 1   
    53    24    25 1   
    54    24    29 1   
    55    24    53 1   
    56    25    26 1   
    57    26    27 2   
    58    26    28 1   
    59    28    29 1   
    60    28    81 1   
    61    29    30 1   
    62    29    82 1   
    63    30    31 1   
    64    30    52 1   
    65    30    83 1   
    66    31    32 2   
    67    31    33 1   
    68    33    34 1   
    69    33    35 1   
    70    33    84 1   
    71    34    85 1   
    72    34    86 1   
    73    34    87 1   
    74    35    36 1   
    75    35    88 1   
    76    35    89 1   
    77    36    37 1   
    78    36    51 1   
    79    37    38 1   
    80    38    39 1   
    81    38    90 1   
    82    38    91 1   
    83    39    40 2   
    84    39    92 1   
    85    40    41 1   
    86    40    93 1   
    87    41    42 ar  
    88    41    46 ar  
    89    42    43 ar  
    90    42    94 1   
    91    43    44 ar  
    92    43    50 ar  
    93    44    45 ar  
    94    44    47 ar  
    95    45    46 ar  
    96    46    95 1   
    97    47    48 ar  
    98    47    96 1   
    99    48    49 ar  
   100    48    97 1   
   101    49    50 ar  
   102    49    98 1   
   103    50    99 1   
   104    51   100 1   
   105    51   101 1   
   106    51   102 1   
   107    52   103 1   
   108    52   104 1   
   109    52   105 1   
   110    53   106 1   
   111    53   107 1   
   112    53   108 1   
   113    54   109 1   
   114    54   110 1   
   115    54   111 1   
   116    55   112 1   
   117    55   113 1   
   118    55   114 1   
@<TRIPOS>SUBSTRUCTURE
     1 773         1 TEMP              0 ****  ****    0 ROOT
