@<TRIPOS>MOLECULE
774
   27    29     1     0     0
SMALL
bcc


@<TRIPOS>ATOM
      1 C6           1.3870     2.1820     0.4380 ca         1 774      -0.125000
      2 C5           2.5200     1.4060     0.2570 ca         1 774      -0.171300
      3 C15         -3.4430    -0.7500    -0.6310 cc         1 774      -0.140000
      4 C14         -3.1390    -1.9710    -0.1080 cd         1 774      -0.125100
      5 C11         -2.3390     0.1440    -0.6140 cc         1 774      -0.088300
      6 C7           0.1380     1.5850     0.3720 ca         1 774       0.043800
      7 C16          0.0710     0.2110     0.0740 ca         1 774       0.465800
      8 C12         -1.2250    -0.4320    -0.0630 cd         1 774      -0.132600
      9 C4           2.3580     0.0480     0.0220 ca         1 774       0.343800
     10 C2           3.5610    -0.8360    -0.1410 c          1 774       0.581600
     11 C10         -2.2910     1.5160    -1.2080 c3         1 774      -0.050100
     12 C9          -1.9870     2.6100    -0.1950 c3         1 774       0.159400
     13 N17          1.1650    -0.5230    -0.0700 nb         1 774      -0.672000
     14 N1           3.2810    -2.1240    -0.3530 nt         1 774      -0.654000
     15 O3           4.6920    -0.3750    -0.0780 o          1 774      -0.610100
     16 O8          -0.9580     2.2790     0.7370 os         1 774      -0.339900
     17 S13         -1.5090    -2.0600     0.4070 ss         1 774      -0.011800
     18 H1           1.4690     3.2380     0.6620 ha         1 774       0.153000
     19 H2           3.5050     1.8460     0.3130 ha         1 774       0.169000
     20 H3          -4.4160    -0.4940    -1.0260 ha         1 774       0.152000
     21 H4          -3.7910    -2.8240     0.0000 h4         1 774       0.170000
     22 H5          -1.5410     1.5360    -2.0050 hc         1 774       0.059700
     23 H6          -3.2430     1.7650    -1.6810 hc         1 774       0.059700
     24 H7          -1.7240     3.5330    -0.7210 h1         1 774       0.054200
     25 H8          -2.8630     2.8090     0.4210 h1         1 774       0.054200
     26 H9           2.3260    -2.4360    -0.4120 hn         1 774       0.327000
     27 H10          4.0210    -2.7910    -0.4950 hn         1 774       0.327000
@<TRIPOS>BOND
     1     1     2 ar  
     2     1     6 ar  
     3     1    18 1   
     4     2     9 ar  
     5     2    19 1   
     6     3     4 2   
     7     3     5 1   
     8     3    20 1   
     9     4    17 1   
    10     4    21 1   
    11     5     8 2   
    12     5    11 1   
    13     6     7 ar  
    14     6    16 1   
    15     7     8 1   
    16     7    13 ar  
    17     8    17 1   
    18     9    10 1   
    19     9    13 ar  
    20    10    14 1   
    21    10    15 2   
    22    11    12 1   
    23    11    22 1   
    24    11    23 1   
    25    12    16 1   
    26    12    24 1   
    27    12    25 1   
    28    14    26 1   
    29    14    27 1   
@<TRIPOS>SUBSTRUCTURE
     1 774         1 TEMP              0 ****  ****    0 ROOT
