@<TRIPOS>MOLECULE
774
   27    29     1     0     0
SMALL
No Charge or Current Charge


@<TRIPOS>ATOM
      1 C6           1.3670     2.1750     0.5620 ca         1 774      -0.107000
      2 C5           2.5150     1.3860     0.3650 ca         1 774      -0.088000
      3 C15         -3.4830    -0.7190    -0.5850 cc         1 774      -0.122000
      4 C14         -3.2500    -1.9540    -0.0350 cd         1 774      -0.252000
      5 C11         -2.3470     0.1310    -0.6100 cc         1 774      -0.088300
      6 C7           0.1100     1.5730     0.4170 ca         1 774       0.109100
      7 C16          0.0500     0.1820     0.1330 ca         1 774       0.400500
      8 C12         -1.2390    -0.4760    -0.0830 cd         1 774      -0.277500
      9 C4           2.3830     0.0140     0.0480 ca         1 774       0.278500
     10 C2           3.6420    -0.8380    -0.1690 c          1 774       0.514600
     11 C10         -2.3640     1.5060    -1.2290 c3         1 774      -0.050100
     12 C9          -1.9970     2.6800    -0.2880 c3         1 774       0.182600
     13 N17          1.1540    -0.5770    -0.0680 nb         1 774      -0.672000
     14 N1           3.4660    -2.1500    -0.4730 nt         1 774      -0.587000
     15 O3           4.7820    -0.4010    -0.0820 o          1 774      -0.610100
     16 O8          -1.0270     2.3030     0.7160 os         1 774      -0.363100
     17 S13         -1.5590    -2.1280     0.4660 ss         1 774       0.278000
     18 H1           1.4510     3.2260     0.8260 ha         1 774       0.135000
     19 H2           3.5020     1.8300     0.4620 ha         1 774       0.151000
     20 H3          -4.4480    -0.4080    -0.9770 ha         1 774       0.134000
     21 H4          -3.9450    -2.7740     0.0980 h4         1 774       0.152000
     22 H5          -1.6580     1.5140    -2.0680 hc         1 774       0.059700
     23 H6          -3.3460     1.7120    -1.6710 hc         1 774       0.059700
     24 H7          -1.6180     3.5140    -0.8930 h1         1 774       0.054200
     25 H8          -2.9100     3.0300     0.2100 h1         1 774       0.054200
     26 H9           2.5260    -2.5140    -0.5470 hn         1 774       0.327000
     27 H10          4.2680    -2.7440    -0.6240 hn         1 774       0.327000
@<TRIPOS>BOND
     1     1     2 ar  
     2     1     6 ar  
     3     1    18 1   
     4     2     9 ar  
     5     2    19 1   
     6     3     4 2   
     7     3     5 1   
     8     3    20 1   
     9     4    17 1   
    10     4    21 1   
    11     5     8 2   
    12     5    11 1   
    13     6     7 ar  
    14     6    16 1   
    15     7     8 1   
    16     7    13 ar  
    17     8    17 1   
    18     9    10 1   
    19     9    13 ar  
    20    10    14 1   
    21    10    15 2   
    22    11    12 1   
    23    11    22 1   
    24    11    23 1   
    25    12    16 1   
    26    12    24 1   
    27    12    25 1   
    28    14    26 1   
    29    14    27 1   
@<TRIPOS>SUBSTRUCTURE
     1 774         1 TEMP              0 ****  ****    0 ROOT
