@<TRIPOS>MOLECULE
775
   40    42     1     0     0
SMALL
bcc


@<TRIPOS>ATOM
      1 C1           7.9350     1.5290    -1.1470 c3         1 775      -0.092100
      2 C2           6.5160     0.9820    -1.1110 c3         1 775      -0.075400
      3 C3           6.1670     0.4120     0.2680 c3         1 775      -0.058200
      4 C4           4.7880    -0.1560     0.3100 cc         1 775       0.181800
      5 C5           4.5160    -1.4820     0.2270 cd         1 775      -0.334200
      6 C6           3.1750    -2.0050     0.2130 c          1 775       0.634500
      7 O7           2.8480    -3.1710     0.1430 o          1 775      -0.539500
      8 N8           2.2080    -0.9950     0.2900 n          1 775       0.086300
      9 N9           0.8740    -1.2500     0.3050 nc         1 775      -0.556800
     10 C10          0.3020    -0.0720     0.3910 cd         1 775       0.641200
     11 N11         -1.0380     0.0970     0.3790 nu         1 775      -0.851900
     12 C12         -1.9270    -1.0410     0.4780 c3         1 775       0.262100
     13 C13         -3.3320    -0.6480     0.1150 ca         1 775      -0.106300
     14 C14         -3.6010    -0.0090    -1.0940 ca         1 775      -0.104000
     15 C15         -4.8950     0.3400    -1.4440 ca         1 775      -0.124500
     16 C16         -5.9330     0.0440    -0.5720 ca         1 775       0.033400
     17 CL1         -7.5560     0.4780    -1.0030 cl         1 775      -0.111400
     18 C18         -5.6940    -0.5890     0.6360 ca         1 775      -0.124500
     19 C19         -4.3900    -0.9280     0.9710 ca         1 775      -0.104000
     20 C20          1.2690     0.9840     0.4530 cd         1 775      -0.318300
     21 C21          1.0440     2.3630     0.5390 ch         1 775       0.276800
     22 N22          0.8470     3.4990     0.6070 n1         1 775      -0.390800
     23 C23          2.4840     0.3220     0.3830 cc         1 775       0.225300
     24 N24          3.7610     0.7390     0.3890 na         1 775      -0.595400
     25 H1           8.0680     2.3350    -0.4250 hc         1 775       0.039700
     26 H2           8.6630     0.7500    -0.9140 hc         1 775       0.039700
     27 H3           8.1750     1.9230    -2.1350 hc         1 775       0.039700
     28 H4           5.8110     1.7740    -1.3780 hc         1 775       0.048700
     29 H5           6.3990     0.1960    -1.8610 hc         1 775       0.048700
     30 H6           6.8750    -0.3750     0.5290 hc         1 775       0.067700
     31 H7           6.2640     1.1940     1.0280 hc         1 775       0.067700
     32 H8           5.3290    -2.1910     0.1650 ha         1 775       0.176000
     33 H10         -1.3810     0.9580     0.7770 hn         1 775       0.434800
     34 H11         -1.5710    -1.8120    -0.2100 h1         1 775       0.062200
     35 H12         -1.9110    -1.4840     1.4790 h1         1 775       0.062200
     36 H13         -2.7920     0.2210    -1.7760 ha         1 775       0.141500
     37 H14         -5.0930     0.8360    -2.3840 ha         1 775       0.149000
     38 H15         -6.5080    -0.8130     1.3130 ha         1 775       0.149000
     39 H16         -4.2000    -1.4180     1.9180 ha         1 775       0.141500
     40 H9           3.9540     1.7270     0.4810 hn         1 775       0.476800
@<TRIPOS>BOND
     1     1     2 1   
     2     1    25 1   
     3     1    26 1   
     4     1    27 1   
     5     2     3 1   
     6     2    28 1   
     7     2    29 1   
     8     3     4 1   
     9     3    30 1   
    10     3    31 1   
    11     4     5 2   
    12     4    24 1   
    13     5     6 1   
    14     5    32 1   
    15     6     7 2   
    16     6     8 1   
    17     8     9 1   
    18     8    23 1   
    19     9    10 2   
    20    10    11 1   
    21    10    20 1   
    22    11    12 1   
    23    11    33 1   
    24    12    13 1   
    25    12    34 1   
    26    12    35 1   
    27    13    14 ar  
    28    13    19 ar  
    29    14    15 ar  
    30    14    36 1   
    31    15    16 ar  
    32    15    37 1   
    33    16    17 1   
    34    16    18 ar  
    35    18    19 ar  
    36    18    38 1   
    37    19    39 1   
    38    20    21 1   
    39    20    23 2   
    40    21    22 3   
    41    23    24 1   
    42    24    40 1   
@<TRIPOS>SUBSTRUCTURE
     1 775         1 TEMP              0 ****  ****    0 ROOT
