@<TRIPOS>MOLECULE
775
   40    42     1     0     0
SMALL
No Charge or Current Charge


@<TRIPOS>ATOM
      1 C1           7.9940     1.8080    -0.8650 c3         1 775      -0.092100
      2 C2           6.6200     1.1130    -0.9330 c3         1 775      -0.075400
      3 C3           6.1390     0.5830     0.4360 c3         1 775      -0.058200
      4 C4           4.8030    -0.1040     0.3600 cc         1 775       0.181800
      5 C5           4.6310    -1.4830     0.3270 cd         1 775      -0.384200
      6 C6           3.3590    -2.2300     0.2510 c          1 775       0.559000
      7 O7           3.2920    -3.4540     0.2250 o          1 775      -0.464000
      8 N8           2.2580    -1.3810     0.2110 n          1 775       0.137000
      9 N9           0.8880    -1.5910     0.1380 nc         1 775      -0.556800
     10 C10          0.3290    -0.3950     0.1320 cd         1 775       0.575900
     11 N11         -1.0160    -0.2420     0.0670 nu         1 775      -0.907100
     12 C12         -2.0140    -1.3150    -0.0040 c3         1 775       0.262100
     13 C13         -3.4090    -0.7110    -0.0630 ca         1 775      -0.106300
     14 C14         -3.9980    -0.4020    -1.3060 ca         1 775      -0.086000
     15 C15         -5.2870     0.1580    -1.3600 ca         1 775      -0.106500
     16 C16         -5.9920     0.4120    -0.1720 ca         1 775       0.125000
     17 Cl1         -7.6030     1.1130    -0.2410 cl         1 775      -0.203000
     18 C18         -5.4110     0.1090     1.0700 ca         1 775      -0.106500
     19 C19         -4.1220    -0.4510     1.1250 ca         1 775      -0.086000
     20 C20          1.2660     0.6710     0.1990 cd         1 775      -0.253000
     21 C21          1.0430     2.0660     0.2130 ch         1 775       0.366000
     22 N22          0.8880     3.2230     0.2270 n1         1 775      -0.480000
     23 C23          2.4290    -0.0360     0.2450 cc         1 775       0.313000
     24 N24          3.6260     0.6640     0.3180 na         1 775      -0.789000
     25 H1           7.9600     2.6700    -0.1870 hc         1 775       0.039700
     26 H2           8.7640     1.1150    -0.5050 hc         1 775       0.039700
     27 H3           8.2920     2.1650    -1.8580 hc         1 775       0.039700
     28 H4           5.8810     1.8190    -1.3300 hc         1 775       0.048700
     29 H5           6.6760     0.2780    -1.6430 hc         1 775       0.048700
     30 H6           6.8880    -0.1120     0.8360 hc         1 775       0.067700
     31 H7           6.0850     1.4150     1.1490 hc         1 775       0.067700
     32 H8           5.4960    -2.1350     0.3550 ha         1 775       0.226000
     33 H10         -1.3490     0.7190     0.0680 hn         1 775       0.490000
     34 H11         -1.8440    -1.9360    -0.8940 h1         1 775       0.062200
     35 H12         -1.9340    -1.9690     0.8760 h1         1 775       0.062200
     36 H13         -3.4560    -0.5940    -2.2300 ha         1 775       0.123500
     37 H14         -5.7380     0.3950    -2.3200 ha         1 775       0.131000
     38 H15         -5.9590     0.3090     1.9870 ha         1 775       0.131000
     39 H16         -3.6770    -0.6810     2.0910 ha         1 775       0.123500
     40 H9           3.6490     1.6830     0.3390 hn         1 775       0.532000
@<TRIPOS>BOND
     1     1     2 1   
     2     1    25 1   
     3     1    26 1   
     4     1    27 1   
     5     2     3 1   
     6     2    28 1   
     7     2    29 1   
     8     3     4 1   
     9     3    30 1   
    10     3    31 1   
    11     4     5 2   
    12     4    24 1   
    13     5     6 1   
    14     5    32 1   
    15     6     7 2   
    16     6     8 1   
    17     8     9 1   
    18     8    23 1   
    19     9    10 2   
    20    10    11 1   
    21    10    20 1   
    22    11    12 1   
    23    11    33 1   
    24    12    13 1   
    25    12    34 1   
    26    12    35 1   
    27    13    14 ar  
    28    13    19 ar  
    29    14    15 ar  
    30    14    36 1   
    31    15    16 ar  
    32    15    37 1   
    33    16    17 1   
    34    16    18 ar  
    35    18    19 ar  
    36    18    38 1   
    37    19    39 1   
    38    20    21 1   
    39    20    23 2   
    40    21    22 3   
    41    23    24 1   
    42    24    40 1   
@<TRIPOS>SUBSTRUCTURE
     1 775         1 TEMP              0 ****  ****    0 ROOT
