@<TRIPOS>MOLECULE
779
   72    75     1     0     0
SMALL
abcg2


@<TRIPOS>ATOM
      1 C1          21.5330    11.7590    23.0260 c          1 779       0.560000
      2 C2          21.0750    10.6140    22.1190 c5         1 779       0.164200
      3 N3          21.5940     9.4670    22.8510 nu         1 779      -0.924400
      4 C4          22.1340     9.7950    24.0530 c2         1 779       0.685800
      5 N5          22.1300    11.2020    24.1200 n          1 779      -0.395300
      6 O6          21.3900    12.9490    22.8130 o          1 779      -0.513000
      7 C7          19.5360    10.5990    22.0260 c3         1 779      -0.082400
      8 C8          23.2230    10.7710    20.6510 c6         1 779      -0.050700
      9 C9          18.8150    10.5640    23.3700 c3         1 779      -0.077400
     10 C10         17.2980    10.3880    23.2660 c6         1 779      -0.058700
     11 C11         23.7120    11.6780    19.5170 c6         1 779      -0.099400
     12 C12         25.2400    11.7240    19.4300 c6         1 779       0.120700
     13 C13         25.8250    10.3220    19.2750 c6         1 779      -0.084400
     14 C14         25.3400     9.3990    20.3930 c6         1 779      -0.070400
     15 C15         23.8140     9.3660    20.4800 c6         1 779      -0.074400
     16 C16         16.6820    10.1990    24.6570 c6         1 779      -0.071900
     17 C17         15.1630    10.0260    24.6060 c6         1 779      -0.072900
     18 C18         14.4950    11.1930    23.8780 c6         1 779      -0.075400
     19 C19         15.0930    11.3840    22.4840 c6         1 779      -0.072900
     20 C20         16.6130    11.5540    22.5410 c6         1 779      -0.071900
     21 N21         22.5670     8.9710    24.9300 n2         1 779      -0.873100
     22 N22         25.6970    12.5750    18.3380 ns         1 779      -0.515900
     23 C23         25.7700    13.9300    18.4620 c          1 779       0.656100
     24 C24         21.6890    10.7720    20.7180 c3         1 779      -0.062400
     25 C25         22.6830    11.9550    25.2280 c3         1 779       0.093300
     26 O26         25.6150    14.5110    19.5370 o          1 779      -0.623100
     27 N27         26.0610    14.5820    17.2810 ns         1 779      -0.166000
     28 C28         26.2120    15.9550    17.0550 ca         1 779      -0.002000
     29 C29         26.7000    16.3430    15.7990 ca         1 779      -0.154500
     30 C30         26.8580    17.6840    15.4840 ca         1 779      -0.081500
     31 C31         26.5380    18.6700    16.4140 ca         1 779      -0.142000
     32 C32         26.0550    18.2870    17.6600 ca         1 779      -0.081500
     33 C33         25.8870    16.9450    17.9890 ca         1 779      -0.154500
     34 H1          19.2380    11.4770    21.4530 hc         1 779       0.057200
     35 H2          19.2580     9.7220    21.4320 hc         1 779       0.057200
     36 H3          23.6180    11.1860    21.5870 hc         1 779       0.057700
     37 H4          19.2160     9.7420    23.9710 hc         1 779       0.046700
     38 H5          19.0230    11.4860    23.9250 hc         1 779       0.046700
     39 H6          17.1040     9.4740    22.6880 hc         1 779       0.042700
     40 H7          23.3290    12.6920    19.6590 hc         1 779       0.049200
     41 H8          23.3150    11.3130    18.5620 hc         1 779       0.049200
     42 H9          25.6240    12.1670    20.3510 h1         1 779       0.084700
     43 H10         25.5130     9.9160    18.3050 hc         1 779       0.043200
     44 H11         26.9160    10.3800    19.2660 hc         1 779       0.043200
     45 H12         25.7290     8.3910    20.2340 hc         1 779       0.045700
     46 H13         25.7480     9.7470    21.3490 hc         1 779       0.045700
     47 H14         23.4070     8.9300    19.5600 hc         1 779       0.044700
     48 H15         23.5000     8.7240    21.3030 hc         1 779       0.044700
     49 H16         17.1450     9.3380    25.1480 hc         1 779       0.039700
     50 H17         16.9240    11.0770    25.2690 hc         1 779       0.039700
     51 H18         14.7630     9.9290    25.6190 hc         1 779       0.038450
     52 H19         14.9240     9.0920    24.0830 hc         1 779       0.038450
     53 H20         14.6420    12.1100    24.4600 hc         1 779       0.039200
     54 H21         13.4160    11.0310    23.8100 hc         1 779       0.039200
     55 H22         14.6390    12.2490    21.9920 hc         1 779       0.038450
     56 H23         14.8540    10.5100    21.8680 hc         1 779       0.038450
     57 H24         17.0090    11.6580    21.5280 hc         1 779       0.039700
     58 H25         16.8560    12.4840    23.0710 hc         1 779       0.039700
     59 H26         22.9320     9.4530    25.7460 hn         1 779       0.397400
     60 H28         25.6640    12.1750    17.4120 hn         1 779       0.299500
     61 H29         21.3060    11.7160    20.3230 hc         1 779       0.057200
     62 H30         21.2880     9.9790    20.0800 hc         1 779       0.057200
     63 H31         22.1460    11.7280    26.1500 h1         1 779       0.053033
     64 H32         23.7400    11.7190    25.3570 h1         1 779       0.053033
     65 H33         22.5750    13.0110    24.9980 h1         1 779       0.053033
     66 H34         26.2650    13.9990    16.4830 hn         1 779       0.142000
     67 H35         26.9530    15.5810    15.0700 ha         1 779       0.128000
     68 H36         27.2360    17.9580    14.5070 ha         1 779       0.112000
     69 H37         26.6640    19.7170    16.1700 ha         1 779       0.114000
     70 H38         25.7980    19.0400    18.3950 ha         1 779       0.112000
     71 H39         25.5110    16.6640    18.9570 ha         1 779       0.128000
     72 H40         21.2900     8.5260    22.6660 hn         1 779       0.518000
@<TRIPOS>BOND
     1     1     2 1   
     2     1     5 1   
     3     1     6 2   
     4     2     3 1   
     5     2     7 1   
     6     2    24 1   
     7     3     4 1   
     8     3    72 1   
     9     4     5 1   
    10     4    21 2   
    11     5    25 1   
    12     7     9 1   
    13     7    34 1   
    14     7    35 1   
    15     8    11 1   
    16     8    15 1   
    17     8    24 1   
    18     8    36 1   
    19     9    10 1   
    20     9    37 1   
    21     9    38 1   
    22    10    16 1   
    23    10    20 1   
    24    10    39 1   
    25    11    12 1   
    26    11    40 1   
    27    11    41 1   
    28    12    13 1   
    29    12    22 1   
    30    12    42 1   
    31    13    14 1   
    32    13    43 1   
    33    13    44 1   
    34    14    15 1   
    35    14    45 1   
    36    14    46 1   
    37    15    47 1   
    38    15    48 1   
    39    16    17 1   
    40    16    49 1   
    41    16    50 1   
    42    17    18 1   
    43    17    51 1   
    44    17    52 1   
    45    18    19 1   
    46    18    53 1   
    47    18    54 1   
    48    19    20 1   
    49    19    55 1   
    50    19    56 1   
    51    20    57 1   
    52    20    58 1   
    53    21    59 1   
    54    22    23 1   
    55    22    60 1   
    56    23    26 2   
    57    23    27 1   
    58    24    61 1   
    59    24    62 1   
    60    25    63 1   
    61    25    64 1   
    62    25    65 1   
    63    27    28 1   
    64    27    66 1   
    65    28    29 ar  
    66    28    33 ar  
    67    29    30 ar  
    68    29    67 1   
    69    30    31 ar  
    70    30    68 1   
    71    31    32 ar  
    72    31    69 1   
    73    32    33 ar  
    74    32    70 1   
    75    33    71 1   
@<TRIPOS>SUBSTRUCTURE
     1 779         1 TEMP              0 ****  ****    0 ROOT
