@<TRIPOS>MOLECULE
779
   72    75     1     0     0
SMALL
No Charge or Current Charge


@<TRIPOS>ATOM
      1 C1          21.6650    11.1120    23.6380 c          1 779       0.560000
      2 C2          21.1360    10.4940    22.3160 c5         1 779       0.164200
      3 N3          21.3870     9.0260    22.4190 nu         1 779      -0.924400
      4 C4          21.8130     8.8010    23.6910 c2         1 779       0.685800
      5 N5          22.0430     9.9940    24.3580 n          1 779      -0.395300
      6 O6          21.7560    12.2790    24.0010 o          1 779      -0.513000
      7 C7          19.6000    10.7410    22.1660 c3         1 779      -0.082400
      8 C8          23.4240    11.3140    21.0900 c6         1 779      -0.050700
      9 C9          18.7070    10.2800    23.3530 c3         1 779      -0.077400
     10 C10         17.1700    10.4520    23.1440 c6         1 779      -0.058700
     11 C11         23.8720    12.0770    19.8080 c6         1 779      -0.099400
     12 C12         25.3970    12.3610    19.7970 c6         1 779       0.120700
     13 C13         26.1740    11.0280    19.9160 c6         1 779      -0.084400
     14 C14         25.7670    10.2600    21.1950 c6         1 779      -0.070400
     15 C15         24.2420     9.9980    21.2330 c6         1 779      -0.074400
     16 C16         16.3840     9.8010    24.3180 c6         1 779      -0.071900
     17 C17         14.8530     9.9420    24.1340 c6         1 779      -0.072900
     18 C18         14.4460    11.4260    23.9710 c6         1 779      -0.075400
     19 C19         15.2120    12.0840    22.8000 c6         1 779      -0.072900
     20 C20         16.7450    11.9420    22.9760 c6         1 779      -0.071900
     21 N21         21.7550     7.6470    24.1910 n2         1 779      -0.873100
     22 N22         25.7810    13.0580    18.5640 ns         1 779      -0.515900
     23 C23         25.6740    14.4120    18.3470 c          1 779       0.656100
     24 C24         21.8700    11.0950    21.0700 c3         1 779      -0.062400
     25 C25         22.6080    10.1100    25.7170 c3         1 779       0.093300
     26 O26         25.2550    15.1780    19.2020 o          1 779      -0.623100
     27 N27         26.0950    14.7740    17.0770 ns         1 779      -0.166000
     28 C28         26.1640    16.0290    16.4130 ca         1 779      -0.002000
     29 C29         26.6690    16.0430    15.0990 ca         1 779      -0.154500
     30 C30         26.7670    17.2470    14.3790 ca         1 779      -0.081500
     31 C31         26.3580    18.4520    14.9700 ca         1 779      -0.142000
     32 C32         25.8510    18.4520    16.2790 ca         1 779      -0.081500
     33 C33         25.7540    17.2480    16.9990 ca         1 779      -0.154500
     34 H1          19.4360    11.8150    22.0210 hc         1 779       0.057200
     35 H2          19.2400    10.2560    21.2490 hc         1 779       0.057200
     36 H3          23.6460    11.9560    21.9540 hc         1 779       0.057700
     37 H4          18.9120     9.2210    23.5510 hc         1 779       0.046700
     38 H5          19.0100    10.8190    24.2590 hc         1 779       0.046700
     39 H6          16.9180     9.9110    22.2210 hc         1 779       0.042700
     40 H7          23.3280    13.0280    19.7350 hc         1 779       0.049200
     41 H8          23.5990    11.4960    18.9160 hc         1 779       0.049200
     42 H9          25.6520    12.9990    20.6570 h1         1 779       0.084700
     43 H10         25.9860    10.4010    19.0330 hc         1 779       0.043200
     44 H11         27.2550    11.2270    19.9350 hc         1 779       0.043200
     45 H12         26.3100     9.3060    21.2450 hc         1 779       0.045700
     46 H13         26.0660    10.8350    22.0830 hc         1 779       0.045700
     47 H14         23.9660     9.2960    20.4340 hc         1 779       0.044700
     48 H15         24.0080     9.5010    22.1810 hc         1 779       0.044700
     49 H16         16.6420     8.7360    24.3970 hc         1 779       0.039700
     50 H17         16.6820    10.2640    25.2690 hc         1 779       0.039700
     51 H18         14.3320     9.5060    24.9970 hc         1 779       0.038450
     52 H19         14.5310     9.3700    23.2520 hc         1 779       0.038450
     53 H20         14.6510    11.9710    24.9020 hc         1 779       0.039200
     54 H21         13.3630    11.4990    23.7970 hc         1 779       0.039200
     55 H22         14.9430    13.1470    22.7300 hc         1 779       0.038450
     56 H23         14.9060    11.6220    21.8510 hc         1 779       0.038450
     57 H24         17.2390    12.3870    22.1030 hc         1 779       0.039700
     58 H25         17.0700    12.5240    23.8500 hc         1 779       0.039700
     59 H26         22.0150     7.7210    25.1810 hn         1 779       0.397400
     60 H28         26.1420    12.5030    17.7990 hn         1 779       0.299500
     61 H29         21.4230    12.0770    20.8710 hc         1 779       0.057200
     62 H30         21.6110    10.4910    20.1910 hc         1 779       0.057200
     63 H31         21.7980    10.0910    26.4560 h1         1 779       0.053033
     64 H32         23.2970     9.2790    25.9120 h1         1 779       0.053033
     65 H33         23.1640    11.0510    25.8190 h1         1 779       0.053033
     66 H34         26.4130    14.0000    16.5100 hn         1 779       0.142000
     67 H35         26.9890    15.1160    14.6290 ha         1 779       0.128000
     68 H36         27.1590    17.2440    13.3640 ha         1 779       0.112000
     69 H37         26.4320    19.3840    14.4150 ha         1 779       0.114000
     70 H38         25.5330    19.3860    16.7380 ha         1 779       0.112000
     71 H39         25.3570    17.2850    18.0080 ha         1 779       0.128000
     72 H40         20.6920     8.3510    22.1150 hn         1 779       0.518000
@<TRIPOS>BOND
     1     1     2 1   
     2     1     5 1   
     3     1     6 2   
     4     2     3 1   
     5     2     7 1   
     6     2    24 1   
     7     3     4 1   
     8     3    72 1   
     9     4     5 1   
    10     4    21 2   
    11     5    25 1   
    12     7     9 1   
    13     7    34 1   
    14     7    35 1   
    15     8    11 1   
    16     8    15 1   
    17     8    24 1   
    18     8    36 1   
    19     9    10 1   
    20     9    37 1   
    21     9    38 1   
    22    10    16 1   
    23    10    20 1   
    24    10    39 1   
    25    11    12 1   
    26    11    40 1   
    27    11    41 1   
    28    12    13 1   
    29    12    22 1   
    30    12    42 1   
    31    13    14 1   
    32    13    43 1   
    33    13    44 1   
    34    14    15 1   
    35    14    45 1   
    36    14    46 1   
    37    15    47 1   
    38    15    48 1   
    39    16    17 1   
    40    16    49 1   
    41    16    50 1   
    42    17    18 1   
    43    17    51 1   
    44    17    52 1   
    45    18    19 1   
    46    18    53 1   
    47    18    54 1   
    48    19    20 1   
    49    19    55 1   
    50    19    56 1   
    51    20    57 1   
    52    20    58 1   
    53    21    59 1   
    54    22    23 1   
    55    22    60 1   
    56    23    26 2   
    57    23    27 1   
    58    24    61 1   
    59    24    62 1   
    60    25    63 1   
    61    25    64 1   
    62    25    65 1   
    63    27    28 1   
    64    27    66 1   
    65    28    29 ar  
    66    28    33 ar  
    67    29    30 ar  
    68    29    67 1   
    69    30    31 ar  
    70    30    68 1   
    71    31    32 ar  
    72    31    69 1   
    73    32    33 ar  
    74    32    70 1   
    75    33    71 1   
@<TRIPOS>SUBSTRUCTURE
     1 779         1 TEMP              0 ****  ****    0 ROOT
