@<TRIPOS>MOLECULE
77A
   48    49     1     0     0
SMALL
bcc


@<TRIPOS>ATOM
      1 N1          -3.4090     1.3790     5.4510 ns         1 77A      -0.485100
      2 C2          -2.8120     2.3320     6.2730 ca         1 77A       0.071600
      3 C3          -1.4880     2.2940     6.6880 ca         1 77A      -0.122000
      4 C4          -1.0020     3.2890     7.5270 ca         1 77A       0.023400
      5 C5          -1.8030     4.3190     7.9720 ca         1 77A      -0.113000
      6 C6          -3.1320     4.3550     7.5660 ca         1 77A      -0.180000
      7 C7          -3.6420     3.3810     6.7240 ca         1 77A       0.087100
      8 O8          -4.9130     3.3420     6.2800 os         1 77A      -0.341900
      9 C9          -5.8190     4.3410     6.7090 c3         1 77A       0.131700
     10 CL10         0.6600     3.2160     8.0240 cl         1 77A      -0.107400
     11 C11         -2.7840     0.4270     4.6950 c          1 77A       0.807100
     12 O12         -1.5820     0.3210     4.5780 o          1 77A      -0.573100
     13 N13         -3.6950    -0.4130     4.0840 ns         1 77A      -0.577400
     14 C14         -3.3780    -1.4050     3.1710 ca         1 77A       0.493900
     15 N15         -2.3660    -1.2130     2.3400 nb         1 77A      -0.754000
     16 C16         -2.0940    -2.1680     1.4800 ca         1 77A       0.588300
     17 C17         -2.8690    -3.3360     1.4080 ca         1 77A       0.236900
     18 N18         -3.8900    -3.5030     2.2210 nb         1 77A      -0.588000
     19 C19         -4.1560    -2.5590     3.1140 ca         1 77A       0.186900
     20 O20         -1.0840    -2.0480     0.6300 os         1 77A      -0.416100
     21 C21         -0.2860    -0.8530     0.6340 c3         1 77A       0.160100
     22 C22          0.4010    -0.7950    -0.7200 c3         1 77A       0.161800
     23 N23         -0.5020    -0.8170    -1.8520 n3         1 77A      -0.703600
     24 C24          0.2410    -0.9600    -3.0860 c3         1 77A       0.148600
     25 C25          0.7290    -0.8790     1.7620 c3         1 77A      -0.122100
     26 C26         -1.3680     0.3420    -1.9010 c3         1 77A       0.148600
     27 HN1         -4.4110     1.4620     5.3600 hn         1 77A       0.333500
     28 H3          -0.8330     1.5040     6.3600 ha         1 77A       0.182000
     29 H5          -1.4150     5.0900     8.6230 ha         1 77A       0.149000
     30 H6          -3.7570     5.1630     7.9210 ha         1 77A       0.140000
     31 H91         -5.4990     5.3380     6.3950 h1         1 77A       0.044033
     32 H92         -5.9460     4.3340     7.7940 h1         1 77A       0.044033
     33 H93         -6.7720     4.1120     6.2400 h1         1 77A       0.044033
     34 HN13        -4.6250    -0.4590     4.4720 hn         1 77A       0.324500
     35 H17         -2.6460    -4.1140     0.6870 h4         1 77A       0.048100
     36 H19         -4.9870    -2.7150     3.7920 h4         1 77A       0.028100
     37 H21         -0.9410     0.0110     0.7650 h1         1 77A       0.068700
     38 H221         1.0370     0.1070    -0.7200 h1         1 77A       0.042200
     39 H222         1.0800    -1.6500    -0.8070 h1         1 77A       0.042200
     40 H241         0.9350    -0.1260    -3.2780 h1         1 77A       0.031033
     41 H242        -0.4450    -1.0210    -3.9310 h1         1 77A       0.031033
     42 H243         0.8280    -1.8800    -3.0660 h1         1 77A       0.031033
     43 H251         0.2390    -0.8800     2.7330 hc         1 77A       0.054033
     44 H252         1.3780    -1.7520     1.6870 hc         1 77A       0.054033
     45 H253         1.3550     0.0130     1.7100 hc         1 77A       0.054033
     46 H261        -0.8180     1.2950    -1.9320 h1         1 77A       0.031033
     47 H262        -2.0380     0.3700    -1.0410 h1         1 77A       0.031033
     48 H263        -1.9940     0.2910    -2.7930 h1         1 77A       0.031033
@<TRIPOS>BOND
     1     1     2 1   
     2     1    11 1   
     3     1    27 1   
     4     2     3 ar  
     5     2     7 ar  
     6     3     4 ar  
     7     3    28 1   
     8     4     5 ar  
     9     4    10 1   
    10     5     6 ar  
    11     5    29 1   
    12     6     7 ar  
    13     6    30 1   
    14     7     8 1   
    15     8     9 1   
    16     9    31 1   
    17     9    32 1   
    18     9    33 1   
    19    11    12 2   
    20    11    13 1   
    21    13    14 1   
    22    13    34 1   
    23    14    15 ar  
    24    14    19 ar  
    25    15    16 ar  
    26    16    17 ar  
    27    16    20 1   
    28    17    18 ar  
    29    17    35 1   
    30    18    19 ar  
    31    19    36 1   
    32    20    21 1   
    33    21    22 1   
    34    21    25 1   
    35    21    37 1   
    36    22    23 1   
    37    22    38 1   
    38    22    39 1   
    39    23    24 1   
    40    23    26 1   
    41    24    40 1   
    42    24    41 1   
    43    24    42 1   
    44    25    43 1   
    45    25    44 1   
    46    25    45 1   
    47    26    46 1   
    48    26    47 1   
    49    26    48 1   
@<TRIPOS>SUBSTRUCTURE
     1 77A         1 TEMP              0 ****  ****    0 ROOT
