@<TRIPOS>MOLECULE
77A
   48    49     1     0     0
SMALL
No Charge or Current Charge


@<TRIPOS>ATOM
      1 N1          -3.3140     1.5090     5.4430 ns         1 77A      -0.159000
      2 C2          -2.8120     2.5360     6.2940 ca         1 77A      -0.021000
      3 C3          -1.4370     2.7010     6.5800 ca         1 77A      -0.104000
      4 C4          -1.0090     3.7350     7.4260 ca         1 77A       0.115000
      5 C5          -1.9390     4.6160     7.9960 ca         1 77A      -0.095000
      6 C6          -3.3080     4.4650     7.7200 ca         1 77A      -0.162000
      7 C7          -3.7490     3.4270     6.8680 ca         1 77A       0.087100
      8 O8          -5.0890     3.2460     6.5710 os         1 77A      -0.365100
      9 C9          -6.1210     4.0960     7.1040 c3         1 77A       0.154900
     10 Cl10         0.7050     3.9290     7.7730 cl         1 77A      -0.199000
     11 C11         -2.6990     0.4700     4.7640 c          1 77A       0.673100
     12 O12         -1.5000     0.2260     4.8030 o          1 77A      -0.573100
     13 N13         -3.6070    -0.2830     4.0580 ns         1 77A      -0.343900
     14 C14         -3.3860    -1.3700     3.2010 ca         1 77A       0.493900
     15 N15         -2.3710    -1.2030     2.3190 nb         1 77A      -0.754000
     16 C16         -2.1840    -2.2290     1.4440 ca         1 77A       0.588300
     17 C17         -3.0350    -3.3780     1.4420 ca         1 77A       0.236900
     18 N18         -4.0800    -3.5340     2.3080 nb         1 77A      -0.588000
     19 C19         -4.2470    -2.5050     3.1840 ca         1 77A       0.186900
     20 O20         -1.1700    -2.1570     0.5100 os         1 77A      -0.439300
     21 C21         -0.1630    -1.1190     0.5410 c3         1 77A       0.183300
     22 C22          0.4940    -1.0390    -0.8710 c3         1 77A       0.161800
     23 N23         -0.4180    -0.7290    -2.0140 n3         1 77A      -0.703600
     24 C24          0.2610    -0.8660    -3.3220 c3         1 77A       0.148600
     25 C25          0.8650    -1.4810     1.6360 c3         1 77A      -0.122100
     26 C26         -1.1170     0.5710    -1.8850 c3         1 77A       0.148600
     27 HN1         -4.3150     1.5550     5.3110 hn         1 77A       0.167000
     28 H3          -0.6840     2.0450     6.1570 ha         1 77A       0.164000
     29 H5          -1.5990     5.4150     8.6500 ha         1 77A       0.131000
     30 H6          -4.0080     5.1620     8.1730 ha         1 77A       0.122000
     31 H91         -5.9690     5.1380     6.7920 h1         1 77A       0.044033
     32 H92         -6.1350     4.0540     8.2000 h1         1 77A       0.044033
     33 H93         -7.1050     3.7740     6.7400 h1         1 77A       0.044033
     34 HN13        -4.5770    -0.0240     4.1680 hn         1 77A       0.158000
     35 H17         -2.8710    -4.1810     0.7250 h4         1 77A       0.048100
     36 H19         -5.0780    -2.5880     3.8830 h4         1 77A       0.028100
     37 H21         -0.6020    -0.1390     0.7710 h1         1 77A       0.068700
     38 H221         1.2920    -0.2850    -0.8300 h1         1 77A       0.042200
     39 H222         0.9870    -2.0030    -1.0560 h1         1 77A       0.042200
     40 H241         1.0670    -0.1260    -3.4250 h1         1 77A       0.031033
     41 H242        -0.4500    -0.7180    -4.1460 h1         1 77A       0.031033
     42 H243         0.6970    -1.8680    -3.4300 h1         1 77A       0.031033
     43 H251         0.4010    -1.4810     2.6290 hc         1 77A       0.054033
     44 H252         1.2960    -2.4720     1.4540 hc         1 77A       0.054033
     45 H253         1.6820    -0.7490     1.6490 hc         1 77A       0.054033
     46 H261        -0.3980     1.4000    -1.8340 h1         1 77A       0.031033
     47 H262        -1.7420     0.5980    -0.9830 h1         1 77A       0.031033
     48 H263        -1.7770     0.7430    -2.7460 h1         1 77A       0.031033
@<TRIPOS>BOND
     1     1     2 1   
     2     1    11 1   
     3     1    27 1   
     4     2     3 ar  
     5     2     7 ar  
     6     3     4 ar  
     7     3    28 1   
     8     4     5 ar  
     9     4    10 1   
    10     5     6 ar  
    11     5    29 1   
    12     6     7 ar  
    13     6    30 1   
    14     7     8 1   
    15     8     9 1   
    16     9    31 1   
    17     9    32 1   
    18     9    33 1   
    19    11    12 2   
    20    11    13 1   
    21    13    14 1   
    22    13    34 1   
    23    14    15 ar  
    24    14    19 ar  
    25    15    16 ar  
    26    16    17 ar  
    27    16    20 1   
    28    17    18 ar  
    29    17    35 1   
    30    18    19 ar  
    31    19    36 1   
    32    20    21 1   
    33    21    22 1   
    34    21    25 1   
    35    21    37 1   
    36    22    23 1   
    37    22    38 1   
    38    22    39 1   
    39    23    24 1   
    40    23    26 1   
    41    24    40 1   
    42    24    41 1   
    43    24    42 1   
    44    25    43 1   
    45    25    44 1   
    46    25    45 1   
    47    26    46 1   
    48    26    47 1   
    49    26    48 1   
@<TRIPOS>SUBSTRUCTURE
     1 77A         1 TEMP              0 ****  ****    0 ROOT
