@<TRIPOS>MOLECULE
77B
   73    76     1     0     0
SMALL
No Charge or Current Charge


@<TRIPOS>ATOM
      1 C14         -1.0470     2.2520     2.9370 ca         1 77B      -0.117000
      2 C13         -0.1840     2.5520     1.8690 ca         1 77B      -0.105000
      3 C12         -0.6360     2.4180     0.5460 ca         1 77B      -0.117000
      4 C11         -1.9490     1.9870     0.2900 ca         1 77B      -0.085000
      5 C10         -2.8190     1.6790     1.3560 ca         1 77B      -0.113300
      6 C15         -2.3590     1.8150     2.6820 ca         1 77B      -0.085000
      7 C20          1.2600     5.5090     0.4770 ca         1 77B      -0.111500
      8 C19          2.3140     4.8600    -0.1900 ca         1 77B      -0.100000
      9 C18          2.2040     4.5470    -1.5590 ca         1 77B      -0.114300
     10 C17          3.3400     3.8350    -2.2810 c3         1 77B       0.145300
     11 N3           3.0340     2.4180    -2.4790 ns         1 77B      -0.497900
     12 C2           2.6800     0.0790    -1.9220 cx         1 77B       0.004300
     13 O1           3.5420    -0.7740    -2.7220 op         1 77B      -0.357000
     14 C3           3.3390    -1.1420    -1.3290 cx         1 77B       0.006300
     15 O4           2.6990    -3.4720    -1.3910 o          1 77B      -0.574100
     16 O2           3.7020     1.6720    -0.4290 o          1 77B      -0.585100
     17 C23          1.0250     4.8860    -2.2530 ca         1 77B      -0.100000
     18 C22         -0.0300     5.5320    -1.5850 ca         1 77B      -0.111500
     19 C21          0.0870     5.8440    -0.2200 ca         1 77B      -0.103000
     20 N1           1.3350    -2.0120    -0.2810 ns         1 77B      -0.478900
     21 C5           0.2680    -2.9440     0.1450 c3         1 77B       0.043700
     22 O5          -1.2120    -1.1160    -0.4840 o          1 77B      -0.604100
     23 C24          0.4830    -3.4300     1.6210 c3         1 77B      -0.061700
     24 C26          0.9500    -2.3310     2.6230 c3         1 77B      -0.074400
     25 C25          1.4450    -4.6410     1.6650 c3         1 77B      -0.093100
     26 C27         -0.0220    -1.1450     2.7980 c3         1 77B      -0.103100
     27 N2          -2.3050    -3.0230     0.1220 n          1 77B      -0.403800
     28 C7          -3.6530    -2.3890     0.0950 c5         1 77B       0.047700
     29 C8          -3.8260    -1.1840     1.0710 c          1 77B       0.603100
     30 O7          -4.1890    -0.0590     0.3720 os         1 77B      -0.437100
     31 C9          -4.2420     1.2000     1.0700 c3         1 77B       0.210900
     32 O6          -3.6770    -1.2160     2.2870 o          1 77B      -0.487000
     33 C30         -4.5490    -3.5800     0.5380 c5         1 77B      -0.084400
     34 C29         -3.8720    -4.7540    -0.2120 c5         1 77B      -0.096400
     35 C28         -2.3670    -4.5030     0.0760 c5         1 77B       0.109000
     36 H14         -0.6980     2.3530     3.9620 ha         1 77B       0.115500
     37 H13          0.8320     2.8850     2.0650 ha         1 77B       0.110000
     38 H12          0.0310     2.6500    -0.2820 ha         1 77B       0.115500
     39 H11         -2.2890     1.8800    -0.7370 ha         1 77B       0.118500
     40 H15         -3.0170     1.5790     3.5160 ha         1 77B       0.118500
     41 H19          3.2160     4.5970     0.3600 ha         1 77B       0.115000
     42 H171         4.2730     3.9310    -1.7090 h1         1 77B       0.067200
     43 H172         3.5020     4.3030    -3.2610 h1         1 77B       0.067200
     44 HN3          2.6210     2.1300    -3.3580 hn         1 77B       0.323500
     45 H2           1.6230     0.0400    -2.1860 h1         1 77B       0.115700
     46 H3           4.2100    -1.0210    -0.6870 h1         1 77B       0.109700
     47 H23          0.9250     4.6460    -3.3090 ha         1 77B       0.115000
     48 H22         -0.9390     5.7890    -2.1250 ha         1 77B       0.114500
     49 H21         -0.7300     6.3420     0.2970 ha         1 77B       0.115000
     50 HN1          1.2150    -1.0330    -0.0460 hn         1 77B       0.323500
     51 H5           0.2890    -3.8200    -0.5150 h1         1 77B       0.082700
     52 H24         -0.4750    -3.8010     2.0020 hc         1 77B       0.059700
     53 H261         1.9360    -1.9490     2.3320 hc         1 77B       0.037200
     54 H262         1.0850    -2.7950     3.6080 hc         1 77B       0.037200
     55 H251         1.5170    -5.0440     2.6830 hc         1 77B       0.040033
     56 H252         1.0890    -5.4470     1.0120 hc         1 77B       0.040033
     57 H253         2.4520    -4.3540     1.3410 hc         1 77B       0.040033
     58 H271        -1.0280    -1.5000     3.0480 hc         1 77B       0.045367
     59 H272         0.3200    -0.4940     3.6110 hc         1 77B       0.045367
     60 H273        -0.0790    -0.5370     1.8890 hc         1 77B       0.045367
     61 H7          -3.9010    -2.0560    -0.9210 h1         1 77B       0.093700
     62 H91         -4.7430     1.9520     0.4460 h1         1 77B       0.065200
     63 H92         -4.8190     1.1150     2.0010 h1         1 77B       0.065200
     64 H301        -5.5990    -3.4430     0.2560 hc         1 77B       0.065200
     65 H302        -4.5160    -3.7380     1.6230 hc         1 77B       0.065200
     66 H291        -4.0790    -4.7070    -1.2880 hc         1 77B       0.061200
     67 H292        -4.2060    -5.7360     0.1410 hc         1 77B       0.061200
     68 H281        -1.7270    -4.9290    -0.7080 h1         1 77B       0.052700
     69 H282        -2.0800    -4.9410     1.0400 h1         1 77B       0.052700
     70 C6          -1.1270    -2.2810    -0.1120 c          1 77B       0.597100
     71 C4           2.4520    -2.3330    -1.0200 c          1 77B       0.612100
     72 C16          3.2000     1.4450    -1.5210 c          1 77B       0.608100
     73 H20          1.3500     5.7470     1.5350 ha         1 77B       0.114500
@<TRIPOS>BOND
     1     1     2 ar  
     2     1     6 ar  
     3     1    36 1   
     4     2     3 ar  
     5     2    37 1   
     6     3     4 ar  
     7     3    38 1   
     8     4     5 ar  
     9     4    39 1   
    10     5     6 ar  
    11     5    31 1   
    12     6    40 1   
    13     7     8 ar  
    14     7    19 ar  
    15     7    73 1   
    16     8     9 ar  
    17     8    41 1   
    18     9    10 1   
    19     9    17 ar  
    20    10    11 1   
    21    10    42 1   
    22    10    43 1   
    23    11    44 1   
    24    11    72 1   
    25    12    13 1   
    26    12    14 1   
    27    12    45 1   
    28    12    72 1   
    29    13    14 1   
    30    14    46 1   
    31    14    71 1   
    32    15    71 2   
    33    16    72 2   
    34    17    18 ar  
    35    17    47 1   
    36    18    19 ar  
    37    18    48 1   
    38    19    49 1   
    39    20    21 1   
    40    20    50 1   
    41    20    71 1   
    42    21    23 1   
    43    21    51 1   
    44    21    70 1   
    45    22    70 2   
    46    23    24 1   
    47    23    25 1   
    48    23    52 1   
    49    24    26 1   
    50    24    53 1   
    51    24    54 1   
    52    25    55 1   
    53    25    56 1   
    54    25    57 1   
    55    26    58 1   
    56    26    59 1   
    57    26    60 1   
    58    27    28 1   
    59    27    35 1   
    60    27    70 1   
    61    28    29 1   
    62    28    33 1   
    63    28    61 1   
    64    29    30 1   
    65    29    32 2   
    66    30    31 1   
    67    31    62 1   
    68    31    63 1   
    69    33    34 1   
    70    33    64 1   
    71    33    65 1   
    72    34    35 1   
    73    34    66 1   
    74    34    67 1   
    75    35    68 1   
    76    35    69 1   
@<TRIPOS>SUBSTRUCTURE
     1 77B         1 TEMP              0 ****  ****    0 ROOT
