@<TRIPOS>MOLECULE
77B
   73    76     1     0     0
SMALL
bcc


@<TRIPOS>ATOM
      1 C14         -1.3680     3.0170    -0.2670 ca         1 77B      -0.135000
      2 C13         -1.9080     3.9610    -1.1350 ca         1 77B      -0.123000
      3 C12         -3.2520     3.9010    -1.4700 ca         1 77B      -0.135000
      4 C11         -4.0540     2.8960    -0.9410 ca         1 77B      -0.103000
      5 C10         -3.5240     1.9500    -0.0710 ca         1 77B      -0.113300
      6 C15         -2.1700     2.0170     0.2610 ca         1 77B      -0.103000
      7 C20          1.9970     4.1430     1.5380 ca         1 77B      -0.129500
      8 C19          2.4970     3.6030     0.3640 ca         1 77B      -0.118000
      9 C18          2.2420     4.2160    -0.8620 ca         1 77B      -0.114300
     10 C17          2.7820     3.6290    -2.1430 c3         1 77B       0.145300
     11 N3           2.4110     2.2410    -2.3160 ns         1 77B      -0.564900
     12 C2           2.6070    -0.1350    -2.3190 cx         1 77B      -0.018900
     13 O1           3.4670    -1.1920    -2.6500 op         1 77B      -0.310600
     14 C3           2.9690    -1.1720    -1.3410 cx         1 77B      -0.016900
     15 O4           1.3580    -2.8460    -1.8760 o          1 77B      -0.574100
     16 O2           4.4490     1.3180    -1.9270 o          1 77B      -0.585100
     17 C23          1.4820     5.3800    -0.8870 ca         1 77B      -0.118000
     18 C22          0.9810     5.9250     0.2890 ca         1 77B      -0.129500
     19 C21          1.2350     5.3060     1.5040 ca         1 77B      -0.121000
     20 N1           1.7100    -2.3440     0.3040 ns         1 77B      -0.545900
     21 C5           0.6030    -3.1110     0.8070 c3         1 77B       0.043700
     22 O5          -0.7410    -1.2820    -0.0130 o          1 77B      -0.604100
     23 C24          0.7890    -3.4340     2.3050 c3         1 77B      -0.061700
     24 C26          1.1320    -2.2410     3.2030 c3         1 77B      -0.074400
     25 C25          1.8440    -4.5280     2.4590 c3         1 77B      -0.093100
     26 C27          0.1190    -1.1050     3.2240 c3         1 77B      -0.103100
     27 N2          -1.8440    -3.1400     0.5530 n          1 77B      -0.470800
     28 C7          -3.0900    -2.5630     0.0800 c5         1 77B       0.047700
     29 C8          -3.4150    -1.2770     0.8110 c          1 77B       0.652100
     30 O7          -3.9950    -0.4060    -0.0040 os         1 77B      -0.413900
     31 C9          -4.4020     0.8750     0.4990 c3         1 77B       0.187700
     32 O6          -3.2300    -1.1070     1.9870 o          1 77B      -0.536000
     33 C30         -4.1280    -3.6570     0.3660 c5         1 77B      -0.084400
     34 C29         -3.3040    -4.9360     0.2820 c5         1 77B      -0.096400
     35 C28         -1.9960    -4.5370     0.9470 c5         1 77B       0.109000
     36 H14         -0.3210     3.0720     0.0020 ha         1 77B       0.133500
     37 H13         -1.2790     4.7390    -1.5450 ha         1 77B       0.128000
     38 H12         -3.6790     4.6310    -2.1450 ha         1 77B       0.133500
     39 H11         -5.1030     2.8500    -1.2090 ha         1 77B       0.136500
     40 H15         -1.7380     1.2870     0.9340 ha         1 77B       0.136500
     41 H19          3.0950     2.7000     0.4060 ha         1 77B       0.133000
     42 H171         3.8690     3.6910    -2.1620 h1         1 77B       0.067200
     43 H172         2.4150     4.1980    -2.9970 h1         1 77B       0.067200
     44 HN3          1.4440     2.0470    -2.5230 hn         1 77B       0.323500
     45 H2           1.6190    -0.1690    -2.7750 h1         1 77B       0.115700
     46 H3           3.6890    -0.9250    -0.5630 h1         1 77B       0.109700
     47 H23          1.2750     5.8630    -1.8350 ha         1 77B       0.133000
     48 H22          0.3850     6.8270     0.2520 ha         1 77B       0.132500
     49 H21          0.8430     5.7250     2.4220 ha         1 77B       0.133000
     50 HN1          2.1660    -1.7010     0.9310 hn         1 77B       0.323500
     51 H5           0.6030    -4.0680     0.2740 h1         1 77B       0.082700
     52 H24         -0.1610    -3.8370     2.6640 hc         1 77B       0.059700
     53 H261         2.1260    -1.8500     2.9560 hc         1 77B       0.037200
     54 H262         1.2360    -2.6420     4.2140 hc         1 77B       0.037200
     55 H251         1.9710    -4.7950     3.5080 hc         1 77B       0.040033
     56 H252         1.5600    -5.4330     1.9190 hc         1 77B       0.040033
     57 H253         2.8140    -4.2030     2.0800 hc         1 77B       0.040033
     58 H271        -0.8930    -1.4770     3.3840 hc         1 77B       0.045367
     59 H272         0.3480    -0.4100     4.0330 hc         1 77B       0.045367
     60 H273         0.1120    -0.5330     2.2980 hc         1 77B       0.045367
     61 H7          -3.0320    -2.3650    -0.9940 h1         1 77B       0.093700
     62 H91         -5.4360     1.0150     0.1820 h1         1 77B       0.065200
     63 H92         -4.3770     0.8810     1.5890 h1         1 77B       0.065200
     64 H301        -4.9540    -3.6230    -0.3410 hc         1 77B       0.065200
     65 H302        -4.5370    -3.5430     1.3730 hc         1 77B       0.065200
     66 H291        -3.1310    -5.2120    -0.7600 hc         1 77B       0.061200
     67 H292        -3.7780    -5.7790     0.7820 hc         1 77B       0.061200
     68 H281        -1.1550    -5.1460     0.6150 h1         1 77B       0.052700
     69 H282        -2.0740    -4.6310     2.0340 h1         1 77B       0.052700
     70 C6          -0.7150    -2.4190     0.4300 c          1 77B       0.664100
     71 C4           1.9340    -2.2110    -1.0120 c          1 77B       0.679100
     72 C16          3.2600     1.2140    -2.1770 c          1 77B       0.675100
     73 H20          2.2000     3.6570     2.4830 ha         1 77B       0.132500
@<TRIPOS>BOND
     1     1     2 ar  
     2     1     6 ar  
     3     1    36 1   
     4     2     3 ar  
     5     2    37 1   
     6     3     4 ar  
     7     3    38 1   
     8     4     5 ar  
     9     4    39 1   
    10     5     6 ar  
    11     5    31 1   
    12     6    40 1   
    13     7     8 ar  
    14     7    19 ar  
    15     7    73 1   
    16     8     9 ar  
    17     8    41 1   
    18     9    10 1   
    19     9    17 ar  
    20    10    11 1   
    21    10    42 1   
    22    10    43 1   
    23    11    44 1   
    24    11    72 1   
    25    12    13 1   
    26    12    14 1   
    27    12    45 1   
    28    12    72 1   
    29    13    14 1   
    30    14    46 1   
    31    14    71 1   
    32    15    71 2   
    33    16    72 2   
    34    17    18 ar  
    35    17    47 1   
    36    18    19 ar  
    37    18    48 1   
    38    19    49 1   
    39    20    21 1   
    40    20    50 1   
    41    20    71 1   
    42    21    23 1   
    43    21    51 1   
    44    21    70 1   
    45    22    70 2   
    46    23    24 1   
    47    23    25 1   
    48    23    52 1   
    49    24    26 1   
    50    24    53 1   
    51    24    54 1   
    52    25    55 1   
    53    25    56 1   
    54    25    57 1   
    55    26    58 1   
    56    26    59 1   
    57    26    60 1   
    58    27    28 1   
    59    27    35 1   
    60    27    70 1   
    61    28    29 1   
    62    28    33 1   
    63    28    61 1   
    64    29    30 1   
    65    29    32 2   
    66    30    31 1   
    67    31    62 1   
    68    31    63 1   
    69    33    34 1   
    70    33    64 1   
    71    33    65 1   
    72    34    35 1   
    73    34    66 1   
    74    34    67 1   
    75    35    68 1   
    76    35    69 1   
@<TRIPOS>SUBSTRUCTURE
     1 77B         1 TEMP              0 ****  ****    0 ROOT
