@<TRIPOS>MOLECULE
77C
   51    55     1     0     0
SMALL
No Charge or Current Charge


@<TRIPOS>ATOM
      1 C10         -2.8750    -0.8390    -0.3190 c          1 77C       0.579600
      2 C13          0.8390    -0.4590     0.7870 c3         1 77C       0.239200
      3 C15          1.0180    -0.6340     2.3100 cx         1 77C      -0.154700
      4 C20         -1.0120    -3.3050     1.0500 ca         1 77C      -0.048000
      5 C21          3.0550     0.4520    -0.2210 ca         1 77C       0.487900
      6 C22          3.8470     1.5670    -0.5210 ca         1 77C      -0.353000
      7 C01         -4.9130     2.4150    -0.3090 ca         1 77C      -0.106000
      8 C02         -3.9420     3.3240     0.1230 ca         1 77C      -0.114000
      9 C03         -2.6480     2.8720     0.4040 ca         1 77C       0.184000
     10 C04         -2.2930     1.5050     0.2610 ca         1 77C       0.161400
     11 C05         -3.2790     0.5900    -0.1770 ca         1 77C      -0.170600
     12 C06         -4.5950     1.0570    -0.4610 ca         1 77C       0.162000
     13 N07         -0.9650     1.1500     0.5680 nc         1 77C      -0.639100
     14 C08         -0.6510    -0.1500     0.4330 cd         1 77C       0.511900
     15 N09         -1.5610    -1.1290     0.0170 n          1 77C      -0.255500
     16 O11         -3.6190    -1.7290    -0.7060 o          1 77C      -0.486000
     17 C12         -1.0020    -2.4520    -0.0680 ca         1 77C      -0.034400
     18 N14          1.7520     0.5870     0.2330 nu         1 77C      -0.922100
     19 C16         -0.4750    -2.9410    -1.2850 ca         1 77C       0.354900
     20 N17          0.0550    -4.1800    -1.4200 nb         1 77C      -0.656000
     21 C18          0.0580    -4.9860    -0.3330 ca         1 77C       0.346900
     22 C19         -0.4650    -4.5910     0.9110 ca         1 77C      -0.157000
     23 C23          5.1430     1.3000    -0.9690 ca         1 77C       0.489900
     24 N24          5.6160     0.0630    -1.1110 nb         1 77C      -0.372000
     25 C25          4.7670    -0.9100    -0.7930 ca         1 77C       0.479900
     26 N26          3.5140    -0.7990    -0.3590 nb         1 77C      -0.376000
     27 N27          5.2300    -2.1650    -0.9360 nv         1 77C      -1.067900
     28 N28          6.0310     2.2670    -1.2990 nv         1 77C      -1.071900
     29 C29          3.3600     2.9020    -0.3680 cg         1 77C       0.353000
     30 N30          2.9480     3.9860    -0.2460 n1         1 77C      -0.498000
     31 Cl3         -5.9150     0.0180    -1.0110 cl         1 77C      -0.152000
     32 F32         -1.7290     3.7780     0.8210 f          1 77C      -0.146000
     33 C33          2.3390    -0.4550     3.0330 cx         1 77C      -0.114900
     34 C34          1.2210     0.5410     3.2450 cx         1 77C      -0.114900
     35 H131         1.1130    -1.4120     0.3220 h1         1 77C       0.108700
     36 H151         0.3850    -1.4320     2.6880 hc         1 77C       0.082700
     37 H201        -1.4340    -2.9820     2.0000 ha         1 77C       0.134000
     38 H011        -5.9200     2.7630    -0.5280 ha         1 77C       0.139000
     39 H021        -4.1870     4.3770     0.2410 ha         1 77C       0.143000
     40 H141         1.3780     1.5370     0.2440 hn         1 77C       0.537000
     41 H161        -0.4680    -2.3130    -2.1760 h4         1 77C       0.032100
     42 H181         0.4870    -5.9790    -0.4650 h4         1 77C       0.024100
     43 H191        -0.4460    -5.2810     1.7500 ha         1 77C       0.131000
     44 H272         6.0670    -2.2940    -1.4970 hn         1 77C       0.506000
     45 H271         4.5500    -2.9200    -0.9550 hn         1 77C       0.506000
     46 H281         5.6860     3.2070    -1.4730 hn         1 77C       0.504000
     47 H282         6.8660     1.9900    -1.8080 hn         1 77C       0.504000
     48 H331         2.5650    -1.1410     3.8460 hc         1 77C       0.077700
     49 H332         3.2100    -0.1190     2.4770 hc         1 77C       0.077700
     50 H342         1.3410     1.5330     2.8150 hc         1 77C       0.077700
     51 H341         0.7000     0.5230     4.1990 hc         1 77C       0.077700
@<TRIPOS>BOND
     1     1    11 1   
     2     1    15 1   
     3     1    16 2   
     4     2     3 1   
     5     2    14 1   
     6     2    18 1   
     7     2    35 1   
     8     3    33 1   
     9     3    34 1   
    10     3    36 1   
    11     4    17 ar  
    12     4    22 ar  
    13     4    37 1   
    14     5     6 ar  
    15     5    18 1   
    16     5    26 ar  
    17     6    23 ar  
    18     6    29 1   
    19     7     8 ar  
    20     7    12 ar  
    21     7    38 1   
    22     8     9 ar  
    23     8    39 1   
    24     9    10 ar  
    25     9    32 1   
    26    10    11 ar  
    27    10    13 1   
    28    11    12 ar  
    29    12    31 1   
    30    13    14 2   
    31    14    15 1   
    32    15    17 1   
    33    17    19 ar  
    34    18    40 1   
    35    19    20 ar  
    36    19    41 1   
    37    20    21 ar  
    38    21    22 ar  
    39    21    42 1   
    40    22    43 1   
    41    23    24 ar  
    42    23    28 1   
    43    24    25 ar  
    44    25    26 ar  
    45    25    27 1   
    46    27    44 1   
    47    27    45 1   
    48    28    46 1   
    49    28    47 1   
    50    29    30 3   
    51    33    34 1   
    52    33    48 1   
    53    33    49 1   
    54    34    50 1   
    55    34    51 1   
@<TRIPOS>SUBSTRUCTURE
     1 77C         1 TEMP              0 ****  ****    0 ROOT
