@<TRIPOS>MOLECULE
77C
   51    55     1     0     0
SMALL
bcc


@<TRIPOS>ATOM
      1 C10         -2.7280    -0.8470    -0.1120 c          1 77C       0.722100
      2 C13          0.9620    -0.4590     0.7390 c3         1 77C       0.239200
      3 C15          1.0080    -0.8020     2.2240 cx         1 77C      -0.154700
      4 C20         -1.1870    -3.3490     1.0790 ca         1 77C      -0.066000
      5 C21          3.0180     0.5220    -0.1590 ca         1 77C       0.816200
      6 C22          3.7540     1.6690    -0.5450 ca         1 77C      -0.483600
      7 C01         -4.6780     2.3850    -0.3050 ca         1 77C      -0.124000
      8 C02         -3.6640     3.3100    -0.0710 ca         1 77C      -0.132000
      9 C03         -2.3890     2.8640     0.1510 ca         1 77C       0.148900
     10 C04         -2.0770     1.5010     0.1470 ca         1 77C       0.161400
     11 C05         -3.0990     0.5680    -0.0920 ca         1 77C      -0.170600
     12 C06         -4.4060     1.0330    -0.3180 ca         1 77C       0.070400
     13 N07         -0.7820     1.1400     0.3860 nc         1 77C      -0.639100
     14 C08         -0.4660    -0.0990     0.3790 cd         1 77C       0.511900
     15 N09         -1.3690    -1.0980     0.1340 n          1 77C      -0.322500
     16 O11         -3.4730    -1.7740    -0.3290 o          1 77C      -0.561500
     17 C12         -0.9660    -2.4640     0.0380 ca         1 77C      -0.099700
     18 N14          1.7990     0.6550     0.3890 nu         1 77C      -0.866900
     19 C16         -0.3670    -2.9200    -1.1270 ca         1 77C       0.420200
     20 N17          0.0330    -4.1730    -1.2830 nb         1 77C      -0.656000
     21 C18         -0.1680    -5.0210    -0.2810 ca         1 77C       0.412200
     22 C19         -0.7750    -4.6610     0.9130 ca         1 77C      -0.240300
     23 C23          5.0340     1.4380    -1.1080 ca         1 77C       0.818200
     24 N24          5.5080     0.2070    -1.2620 nb         1 77C      -0.898000
     25 C25          4.7240    -0.7960    -0.8620 ca         1 77C       1.005900
     26 N26          3.5070    -0.6970    -0.3140 nb         1 77C      -0.902000
     27 N27          5.2050    -2.0330    -1.0140 nv         1 77C      -0.957500
     28 N28          5.8130     2.4490    -1.4960 nv         1 77C      -0.961500
     29 C29          3.2460     2.9630    -0.3680 cg         1 77C       0.263800
     30 N30          2.8250     4.0320    -0.2180 n1         1 77C      -0.408800
     31 CL3         -5.7350    -0.0240    -0.6180 cl         1 77C      -0.060400
     32 F32         -1.4060     3.7350     0.3780 f          1 77C      -0.110900
     33 C33          2.2280    -0.5260     3.0430 cx         1 77C      -0.114900
     34 C34          0.9820     0.2810     3.2550 cx         1 77C      -0.114900
     35 H131         1.3040    -1.3260     0.1740 h1         1 77C       0.108700
     36 H151         0.4810    -1.7150     2.4760 hc         1 77C       0.082700
     37 H201        -1.6690    -3.0240     1.9930 ha         1 77C       0.152000
     38 H011        -5.6850     2.7350    -0.4810 ha         1 77C       0.157000
     39 H021        -3.8840     4.3690    -0.0640 ha         1 77C       0.161000
     40 H141         1.3610     1.5650     0.4250 hn         1 77C       0.481800
     41 H161        -0.2040    -2.2380    -1.9550 h4         1 77C       0.032100
     42 H181         0.1680    -6.0390    -0.4340 h4         1 77C       0.024100
     43 H191        -0.9200    -5.3920     1.6950 ha         1 77C       0.149000
     44 H272         6.0880    -2.1830    -1.4680 hn         1 77C       0.450800
     45 H271         4.6370    -2.8290    -0.7870 hn         1 77C       0.450800
     46 H281         5.5100     3.4070    -1.4680 hn         1 77C       0.448800
     47 H282         6.6920     2.2510    -1.9430 hn         1 77C       0.448800
     48 H331         2.4970    -1.2620     3.7890 hc         1 77C       0.077700
     49 H332         3.0720    -0.0400     2.5730 hc         1 77C       0.077700
     50 H342         0.9870     1.3090     2.9150 hc         1 77C       0.077700
     51 H341         0.4000     0.1140     4.1520 hc         1 77C       0.077700
@<TRIPOS>BOND
     1     1    11 1   
     2     1    15 1   
     3     1    16 2   
     4     2     3 1   
     5     2    14 1   
     6     2    18 1   
     7     2    35 1   
     8     3    33 1   
     9     3    34 1   
    10     3    36 1   
    11     4    17 ar  
    12     4    22 ar  
    13     4    37 1   
    14     5     6 ar  
    15     5    18 1   
    16     5    26 ar  
    17     6    23 ar  
    18     6    29 1   
    19     7     8 ar  
    20     7    12 ar  
    21     7    38 1   
    22     8     9 ar  
    23     8    39 1   
    24     9    10 ar  
    25     9    32 1   
    26    10    11 ar  
    27    10    13 1   
    28    11    12 ar  
    29    12    31 1   
    30    13    14 2   
    31    14    15 1   
    32    15    17 1   
    33    17    19 ar  
    34    18    40 1   
    35    19    20 ar  
    36    19    41 1   
    37    20    21 ar  
    38    21    22 ar  
    39    21    42 1   
    40    22    43 1   
    41    23    24 ar  
    42    23    28 1   
    43    24    25 ar  
    44    25    26 ar  
    45    25    27 1   
    46    27    44 1   
    47    27    45 1   
    48    28    46 1   
    49    28    47 1   
    50    29    30 3   
    51    33    34 1   
    52    33    48 1   
    53    33    49 1   
    54    34    50 1   
    55    34    51 1   
@<TRIPOS>SUBSTRUCTURE
     1 77C         1 TEMP              0 ****  ****    0 ROOT
