@<TRIPOS>MOLECULE
77D
   57    60     1     0     0
SMALL
No Charge or Current Charge


@<TRIPOS>ATOM
      1 N01          3.3100    -4.8700     0.4350 ns         1 77D      -0.492900
      2 C02          4.1040    -4.0050     1.3190 c3         1 77D       0.112000
      3 C03          5.1010    -3.0610     0.5920 c3         1 77D      -0.053000
      4 C04          5.4400    -1.8690     1.5240 c3         1 77D      -0.086100
      5 C05          6.4080    -3.8360     0.2710 c3         1 77D      -0.086100
      6 C06          4.4790    -2.5420    -0.7300 c3         1 77D      -0.023100
      7 C07          3.0300    -2.1040    -0.6120 cc         1 77D       0.030700
      8 C08          2.5450    -0.7380    -0.6590 cc         1 77D      -0.258600
      9 C09          3.4360     0.4740    -0.6480 c          1 77D       0.636700
     10 N10          2.7940     1.6550    -0.3700 ns         1 77D      -0.508900
     11 C11          3.4100     2.9830    -0.2340 c6         1 77D       0.071700
     12 C12          2.3650     4.1060    -0.5060 c6         1 77D       0.136800
     13 N13          2.9390     5.4660    -0.3120 n7         1 77D      -0.845400
     14 C14          3.4860     5.6610     1.0530 c6         1 77D       0.148800
     15 C15          4.5600     4.5950     1.3760 c6         1 77D      -0.111400
     16 C16          4.0010     3.1620     1.1890 c6         1 77D      -0.088400
     17 O17          4.6440     0.4690    -0.8170 o          1 77D      -0.594100
     18 C18          1.1570    -0.6820    -0.6710 cd         1 77D       0.211000
     19 N19          0.3910     0.4510    -0.8870 nu         1 77D      -0.961000
     20 C20         -0.8760     0.8370    -0.4180 ca         1 77D       0.272000
     21 C21         -1.6050     1.8620    -1.0710 ca         1 77D       0.123000
     22 F22         -1.0910     2.4730    -2.1660 f          1 77D      -0.173000
     23 C23         -2.8660     2.2580    -0.5960 ca         1 77D      -0.088000
     24 C24         -3.4080     1.6410     0.5410 ca         1 77D       0.189000
     25 I25         -5.3490     2.2510     1.2790 i          1 77D      -0.289000
     26 C26         -2.6890     0.6340     1.2070 ca         1 77D      -0.061000
     27 C27         -1.4250     0.2360     0.7310 ca         1 77D      -0.133000
     28 S28          0.4210    -2.3000    -0.6710 ss         1 77D       0.284000
     29 C29          2.0080    -3.0220    -0.4820 cd         1 77D      -0.329600
     30 C30          2.1590    -4.4710    -0.2080 c          1 77D       0.603600
     31 O31          1.2930    -5.2870    -0.4730 o          1 77D      -0.562000
     32 HN01         3.4040    -5.8700     0.5590 hn         1 77D       0.314500
     33 H02          3.3950    -3.3990     1.9000 h1         1 77D       0.045700
     34 H02A         4.6440    -4.6340     2.0380 h1         1 77D       0.045700
     35 H04          5.8690    -2.2210     2.4700 hc         1 77D       0.038200
     36 H04A         6.1670    -1.1960     1.0540 hc         1 77D       0.038200
     37 H04B         4.5420    -1.2840     1.7590 hc         1 77D       0.038200
     38 H05          6.2050    -4.7080    -0.3610 hc         1 77D       0.038200
     39 H05A         7.1240    -3.1940    -0.2570 hc         1 77D       0.038200
     40 H05B         6.8890    -4.1920     1.1900 hc         1 77D       0.038200
     41 H06          5.1290    -1.7930    -1.1860 hc         1 77D       0.073200
     42 H06A         4.5040    -3.3570    -1.4640 hc         1 77D       0.073200
     43 HN10         1.8020     1.5540    -0.1780 hn         1 77D       0.317500
     44 H11          4.2200     3.0710    -0.9740 h1         1 77D       0.078700
     45 H12          1.9880     4.0110    -1.5360 h1         1 77D       0.056700
     46 H12A         1.5050     3.9740     0.1690 h1         1 77D       0.056700
     47 HN13         3.7040     5.5960    -0.9860 hn         1 77D       0.411000
     48 H14          3.9240     6.6670     1.1390 h1         1 77D       0.054200
     49 H14A         2.6700     5.5930     1.7900 h1         1 77D       0.054200
     50 H15          5.4340     4.7410     0.7250 hc         1 77D       0.047700
     51 H15A         4.9140     4.7260     2.4070 hc         1 77D       0.047700
     52 H16          3.2240     2.9700     1.9420 hc         1 77D       0.045700
     53 H16A         4.7970     2.4260     1.3640 hc         1 77D       0.045700
     54 HN19         0.6960     0.9880    -1.7050 hn         1 77D       0.515000
     55 H23         -3.4190     3.0410    -1.1060 ha         1 77D       0.149000
     56 H26         -3.1110     0.1680     2.0940 ha         1 77D       0.136000
     57 H27         -0.8720    -0.5290     1.2660 ha         1 77D       0.133000
@<TRIPOS>BOND
     1     1     2 1   
     2     1    30 1   
     3     1    32 1   
     4     2     3 1   
     5     2    33 1   
     6     2    34 1   
     7     3     4 1   
     8     3     5 1   
     9     3     6 1   
    10     4    35 1   
    11     4    36 1   
    12     4    37 1   
    13     5    38 1   
    14     5    39 1   
    15     5    40 1   
    16     6     7 1   
    17     6    41 1   
    18     6    42 1   
    19     7     8 1   
    20     7    29 2   
    21     8     9 1   
    22     8    18 2   
    23     9    10 1   
    24     9    17 2   
    25    10    11 1   
    26    10    43 1   
    27    11    12 1   
    28    11    16 1   
    29    11    44 1   
    30    12    13 1   
    31    12    45 1   
    32    12    46 1   
    33    13    14 1   
    34    13    47 1   
    35    14    15 1   
    36    14    48 1   
    37    14    49 1   
    38    15    16 1   
    39    15    50 1   
    40    15    51 1   
    41    16    52 1   
    42    16    53 1   
    43    18    19 1   
    44    18    28 1   
    45    19    20 1   
    46    19    54 1   
    47    20    21 ar  
    48    20    27 ar  
    49    21    22 1   
    50    21    23 ar  
    51    23    24 ar  
    52    23    55 1   
    53    24    25 1   
    54    24    26 ar  
    55    26    27 ar  
    56    26    56 1   
    57    27    57 1   
    58    28    29 1   
    59    29    30 1   
    60    30    31 2   
@<TRIPOS>SUBSTRUCTURE
     1 77D         1 TEMP              0 ****  ****    0 ROOT
