@<TRIPOS>MOLECULE
77D
   57    60     1     0     0
SMALL
abcg2


@<TRIPOS>ATOM
      1 N01          3.2020    -4.7230     0.3020 ns         1 77D      -0.492900
      2 C02          4.0080    -3.9150     1.2030 c3         1 77D       0.112000
      3 C03          5.0180    -2.9860     0.5160 c3         1 77D      -0.053000
      4 C04          5.4210    -1.9060     1.5180 c3         1 77D      -0.086100
      5 C05          6.2490    -3.7720     0.0690 c3         1 77D      -0.086100
      6 C06          4.3780    -2.3480    -0.7310 c3         1 77D      -0.023100
      7 C07          2.9570    -1.9120    -0.5460 cc         1 77D       0.030700
      8 C08          2.4690    -0.5720    -0.5420 cc         1 77D      -0.258600
      9 C09          3.3310     0.6270    -0.7370 c          1 77D       0.636700
     10 N10          3.1180     1.6200     0.1470 ns         1 77D      -0.508900
     11 C11          3.7710     2.9120     0.1020 c6         1 77D       0.071700
     12 C12          2.9030     3.9320    -0.6490 c6         1 77D       0.136800
     13 N13          3.4590     5.2700    -0.6690 n7         1 77D      -0.845400
     14 C14          3.7720     5.7530     0.6670 c6         1 77D       0.148800
     15 C15          4.6660     4.8110     1.4680 c6         1 77D      -0.111400
     16 C16          4.0720     3.4060     1.5130 c6         1 77D      -0.088400
     17 O17          4.1580     0.6900    -1.6350 o          1 77D      -0.594100
     18 C18          1.0950    -0.5120    -0.4110 cd         1 77D       0.211000
     19 N19          0.3360     0.6250    -0.4690 nu         1 77D      -0.961000
     20 C20         -1.0190     0.7350    -0.1900 ca         1 77D       0.272000
     21 C21         -1.8060     1.5850    -0.9660 ca         1 77D       0.123000
     22 F22         -1.2130     2.2510    -1.9690 f          1 77D      -0.173000
     23 C23         -3.1510     1.7750    -0.7430 ca         1 77D      -0.088000
     24 C24         -3.7480     1.0730     0.2950 ca         1 77D       0.189000
     25 I25         -5.8010     1.3210     0.6540 i          1 77D      -0.289000
     26 C26         -3.0040     0.2210     1.0960 ca         1 77D      -0.061000
     27 C27         -1.6450     0.0690     0.8610 ca         1 77D      -0.133000
     28 S28          0.3910    -2.0830    -0.3000 ss         1 77D       0.284000
     29 C29          1.9510    -2.8200    -0.3680 cd         1 77D      -0.329600
     30 C30          2.0550    -4.2790    -0.2580 c          1 77D       0.603600
     31 O31          1.1600    -5.0190    -0.6510 o          1 77D      -0.562000
     32 HN01         3.3030    -5.7250     0.3600 hn         1 77D       0.314500
     33 H02          3.3420    -3.3230     1.8360 h1         1 77D       0.045700
     34 H02A         4.5360    -4.6000     1.8680 h1         1 77D       0.045700
     35 H04          5.8310    -2.3480     2.4290 hc         1 77D       0.038200
     36 H04A         6.1830    -1.2480     1.0970 hc         1 77D       0.038200
     37 H04B         4.5680    -1.2870     1.8070 hc         1 77D       0.038200
     38 H05          5.9730    -4.5990    -0.5900 hc         1 77D       0.038200
     39 H05A         6.9450    -3.1320    -0.4760 hc         1 77D       0.038200
     40 H05B         6.7820    -4.1890     0.9260 hc         1 77D       0.038200
     41 H06          4.9960    -1.5150    -1.0640 hc         1 77D       0.073200
     42 H06A         4.3960    -3.0790    -1.5430 hc         1 77D       0.073200
     43 HN10         2.4830     1.4480     0.9120 hn         1 77D       0.317500
     44 H11          4.7140     2.7950    -0.4370 h1         1 77D       0.078700
     45 H12          2.7440     3.5940    -1.6760 h1         1 77D       0.056700
     46 H12A         1.9180     3.9750    -0.1690 h1         1 77D       0.056700
     47 HN13         4.2980     5.2760    -1.2370 hn         1 77D       0.411000
     48 H14          4.2360     6.7380     0.5800 h1         1 77D       0.054200
     49 H14A         2.8280     5.8980     1.2020 h1         1 77D       0.054200
     50 H15          5.6600     4.7740     1.0100 hc         1 77D       0.047700
     51 H15A         4.8030     5.1940     2.4820 hc         1 77D       0.047700
     52 H16          3.1470     3.4200     2.1010 hc         1 77D       0.045700
     53 H16A         4.7540     2.7140     2.0120 hc         1 77D       0.045700
     54 HN19         0.7530     1.3940    -0.9700 hn         1 77D       0.515000
     55 H23         -3.7050     2.4490    -1.3820 ha         1 77D       0.149000
     56 H26         -3.4570    -0.3140     1.9190 ha         1 77D       0.136000
     57 H27         -1.0700    -0.5610     1.5250 ha         1 77D       0.133000
@<TRIPOS>BOND
     1     1     2 1   
     2     1    30 1   
     3     1    32 1   
     4     2     3 1   
     5     2    33 1   
     6     2    34 1   
     7     3     4 1   
     8     3     5 1   
     9     3     6 1   
    10     4    35 1   
    11     4    36 1   
    12     4    37 1   
    13     5    38 1   
    14     5    39 1   
    15     5    40 1   
    16     6     7 1   
    17     6    41 1   
    18     6    42 1   
    19     7     8 1   
    20     7    29 2   
    21     8     9 1   
    22     8    18 2   
    23     9    10 1   
    24     9    17 2   
    25    10    11 1   
    26    10    43 1   
    27    11    12 1   
    28    11    16 1   
    29    11    44 1   
    30    12    13 1   
    31    12    45 1   
    32    12    46 1   
    33    13    14 1   
    34    13    47 1   
    35    14    15 1   
    36    14    48 1   
    37    14    49 1   
    38    15    16 1   
    39    15    50 1   
    40    15    51 1   
    41    16    52 1   
    42    16    53 1   
    43    18    19 1   
    44    18    28 1   
    45    19    20 1   
    46    19    54 1   
    47    20    21 ar  
    48    20    27 ar  
    49    21    22 1   
    50    21    23 ar  
    51    23    24 ar  
    52    23    55 1   
    53    24    25 1   
    54    24    26 ar  
    55    26    27 ar  
    56    26    56 1   
    57    27    57 1   
    58    28    29 1   
    59    29    30 1   
    60    30    31 2   
@<TRIPOS>SUBSTRUCTURE
     1 77D         1 TEMP              0 ****  ****    0 ROOT
