@<TRIPOS>MOLECULE
77F
   78    81     1     0     0
SMALL
No Charge or Current Charge


@<TRIPOS>ATOM
      1 C21         -2.5430     0.5600    -0.0950 c          1 77F       0.617700
      2 O22         -2.7840     0.4880     1.1030 o          1 77F      -0.594100
      3 C22         -3.4010     1.3820    -1.0420 ca         1 77F      -0.103600
      4 C27         -4.5500     2.0430    -0.5450 ca         1 77F      -0.155000
      5 C26         -5.3520     2.8280    -1.3910 ca         1 77F       0.134100
      6 C25         -5.0190     2.9660    -2.7450 ca         1 77F      -0.130000
      7 C24         -3.8840     2.3190    -3.2570 ca         1 77F      -0.088000
      8 C23         -3.0790     1.5320    -2.4150 ca         1 77F      -0.134000
      9 O27         -6.4550     3.4620    -0.9010 oh         1 77F      -0.533100
     10 C11          5.5320    -4.1110    -0.3320 c6         1 77F      -0.070900
     11 N11          3.4320    -0.1670     0.5360 n3         1 77F      -0.793500
     12 C12          4.2090    -0.3940    -0.7100 c3         1 77F       0.235800
     13 C13          4.4850    -1.8880    -1.0770 c6         1 77F      -0.080700
     14 C14          5.2630    -1.9940    -2.4200 c6         1 77F      -0.074400
     15 C15          5.2560    -2.6360     0.0510 c6         1 77F      -0.074400
     16 C17          0.9800    -0.4190    -0.3820 c3         1 77F       0.124300
     17 C18          6.2960    -4.2090    -1.6750 c6         1 77F      -0.076400
     18 O18          1.2380    -0.9280    -1.7110 oh         1 77F      -0.655000
     19 C19         -0.4430    -0.8400     0.0930 c3         1 77F       0.082700
     20 C20          5.5380    -3.4700    -2.8030 c6         1 77F      -0.070900
     21 N20         -1.4610    -0.0900    -0.6550 ns         1 77F      -0.498900
     22 C32         -0.7150    -2.3700     0.0520 c3         1 77F      -0.047100
     23 C33         -3.1740    -2.9670    -0.2360 ca         1 77F      -0.098000
     24 C34         -4.4300    -3.3130     0.2920 ca         1 77F      -0.106500
     25 C35         -4.5960    -3.4490     1.6800 ca         1 77F      -0.106000
     26 C36         -3.5050    -3.2380     2.5400 ca         1 77F      -0.106500
     27 C37         -2.2490    -2.8900     2.0130 ca         1 77F      -0.098000
     28 C38         -2.0770    -2.7520     0.6210 ca         1 77F      -0.081300
     29 S8           3.6580     1.3430     1.3220 sy         1 77F       1.199600
     30 O9           4.5550     2.1320     0.4700 o          1 77F      -0.545000
     31 O10          4.0100     1.0250     2.7100 o          1 77F      -0.545000
     32 C5           2.0420     2.1390     1.2540 ca         1 77F      -0.341500
     33 C4           1.0980     1.9230     2.2770 ca         1 77F       0.020500
     34 C6           1.7220     2.9840     0.1710 ca         1 77F       0.020500
     35 C3          -0.1710     2.5180     2.1900 ca         1 77F      -0.196000
     36 C7           0.4480     3.5710     0.0900 ca         1 77F      -0.196000
     37 C2          -0.5070     3.3330     1.0990 ca         1 77F       0.196100
     38 O1          -1.7760     3.8740     1.0640 os         1 77F      -0.326100
     39 C1          -2.2430     4.6630    -0.0450 c3         1 77F       0.145900
     40 H27         -4.8140     1.9460     0.5050 ha         1 77F       0.136000
     41 H25         -5.6390     3.5750    -3.3980 ha         1 77F       0.130000
     42 H24         -3.6260     2.4280    -4.3080 ha         1 77F       0.116000
     43 H23         -2.2050     1.0520    -2.8460 ha         1 77F       0.118000
     44 HO27        -6.5460     3.2440     0.0510 ho         1 77F       0.470000
     45 H11A         4.5820    -4.6580    -0.4060 hc         1 77F       0.038950
     46 H12          3.7080     0.0930    -1.5580 h1         1 77F       0.064200
     47 H12A         5.2020     0.0690    -0.6260 h1         1 77F       0.064200
     48 H13          3.5140    -2.3770    -1.2190 hc         1 77F       0.043700
     49 H14          4.6910    -1.5090    -3.2230 hc         1 77F       0.044700
     50 H14A         6.2160    -1.4510    -2.3450 hc         1 77F       0.044700
     51 H15          4.6820    -2.6070     0.9870 hc         1 77F       0.044700
     52 H15A         6.2070    -2.1250     0.2550 hc         1 77F       0.044700
     53 H17          0.9630     0.6710    -0.4320 h1         1 77F       0.093700
     54 H18          7.3010    -3.7800    -1.5610 hc         1 77F       0.040200
     55 H18A         6.4370    -5.2640    -1.9480 hc         1 77F       0.040200
     56 HO18         1.3100    -1.9030    -1.6470 ho         1 77F       0.440000
     57 H19         -0.5210    -0.5320     1.1450 h1         1 77F       0.090700
     58 H20          4.5880    -3.9820    -3.0080 hc         1 77F       0.038950
     59 H20A         6.1210    -3.5110    -3.7330 hc         1 77F       0.038950
     60 HN20        -1.3320     0.0140    -1.6520 hn         1 77F       0.323500
     61 H32         -0.6360    -2.7280    -0.9810 hc         1 77F       0.048200
     62 H32A         0.0690    -2.8930     0.6140 hc         1 77F       0.048200
     63 H33         -3.0550    -2.8600    -1.3120 ha         1 77F       0.108000
     64 H34         -5.2740    -3.4750    -0.3750 ha         1 77F       0.112500
     65 H35         -5.5680    -3.7170     2.0890 ha         1 77F       0.112000
     66 H36         -3.6330    -3.3410     3.6160 ha         1 77F       0.112500
     67 H37         -1.4110    -2.7250     2.6860 ha         1 77F       0.108000
     68 H4           1.3370     1.2880     3.1290 ha         1 77F       0.135000
     69 H6           2.4440     3.1680    -0.6240 ha         1 77F       0.135000
     70 H3          -0.9060     2.3370     2.9700 ha         1 77F       0.134000
     71 H7           0.2230     4.2040    -0.7630 ha         1 77F       0.134000
     72 H1          -3.2850     4.9660     0.1170 h1         1 77F       0.046033
     73 H1A         -1.6380     5.5710    -0.1610 h1         1 77F       0.046033
     74 H1B         -2.1990     4.0880    -0.9790 h1         1 77F       0.046033
     75 C16          2.0970    -0.8290     0.6420 c3         1 77F       0.193800
     76 H11          6.1120    -4.6000     0.4630 hc         1 77F       0.038950
     77 H16          2.2280    -1.9160     0.5720 h1         1 77F       0.063200
     78 H16A         1.7050    -0.6660     1.6550 h1         1 77F       0.063200
@<TRIPOS>BOND
     1     1     2 2   
     2     1     3 1   
     3     1    21 1   
     4     3     4 ar  
     5     3     8 ar  
     6     4     5 ar  
     7     4    40 1   
     8     5     6 ar  
     9     5     9 1   
    10     6     7 ar  
    11     6    41 1   
    12     7     8 ar  
    13     7    42 1   
    14     8    43 1   
    15     9    44 1   
    16    10    15 1   
    17    10    17 1   
    18    10    45 1   
    19    10    76 1   
    20    11    12 1   
    21    11    29 1   
    22    11    75 1   
    23    12    13 1   
    24    12    46 1   
    25    12    47 1   
    26    13    14 1   
    27    13    15 1   
    28    13    48 1   
    29    14    20 1   
    30    14    49 1   
    31    14    50 1   
    32    15    51 1   
    33    15    52 1   
    34    16    18 1   
    35    16    19 1   
    36    16    53 1   
    37    16    75 1   
    38    17    20 1   
    39    17    54 1   
    40    17    55 1   
    41    18    56 1   
    42    19    21 1   
    43    19    22 1   
    44    19    57 1   
    45    20    58 1   
    46    20    59 1   
    47    21    60 1   
    48    22    28 1   
    49    22    61 1   
    50    22    62 1   
    51    23    24 ar  
    52    23    28 ar  
    53    23    63 1   
    54    24    25 ar  
    55    24    64 1   
    56    25    26 ar  
    57    25    65 1   
    58    26    27 ar  
    59    26    66 1   
    60    27    28 ar  
    61    27    67 1   
    62    29    30 2   
    63    29    31 2   
    64    29    32 1   
    65    32    33 ar  
    66    32    34 ar  
    67    33    35 ar  
    68    33    68 1   
    69    34    36 ar  
    70    34    69 1   
    71    35    37 ar  
    72    35    70 1   
    73    36    37 ar  
    74    36    71 1   
    75    37    38 1   
    76    38    39 1   
    77    39    72 1   
    78    39    73 1   
    79    39    74 1   
    80    75    77 1   
    81    75    78 1   
@<TRIPOS>SUBSTRUCTURE
     1 77F         1 TEMP              0 ****  ****    0 ROOT
