@<TRIPOS>MOLECULE
77F
   78    81     1     0     0
SMALL
abcg2


@<TRIPOS>ATOM
      1 C21         -2.6950     0.6200     0.0980 c          1 77F       0.617700
      2 O22         -2.7830     0.5980     1.3150 o          1 77F      -0.594100
      3 C22         -3.5960     1.4840    -0.7270 ca         1 77F      -0.103600
      4 C27         -4.8790     1.7270    -0.2460 ca         1 77F      -0.155000
      5 C26         -5.7500     2.5430    -0.9600 ca         1 77F       0.134100
      6 C25         -5.3260     3.1350    -2.1490 ca         1 77F      -0.130000
      7 C24         -4.0430     2.9010    -2.6120 ca         1 77F      -0.088000
      8 C23         -3.1720     2.0740    -1.9130 ca         1 77F      -0.134000
      9 O27         -7.0060     2.7990    -0.5470 oh         1 77F      -0.533100
     10 C11          6.4300    -3.3730     0.1620 c6         1 77F      -0.070900
     11 N11          3.0060    -0.4900    -0.0540 n3         1 77F      -0.793500
     12 C12          3.8400    -0.8070    -1.2090 c3         1 77F       0.235800
     13 C13          4.6250    -2.1090    -1.0730 c6         1 77F      -0.080700
     14 C14          5.3500    -2.3960    -2.3880 c6         1 77F      -0.074400
     15 C15          5.6150    -2.0850     0.0890 c6         1 77F      -0.074400
     16 C17          0.5710    -0.5530    -0.6130 c3         1 77F       0.124300
     17 C18          7.1500    -3.6510    -1.1530 c6         1 77F      -0.076400
     18 O18          0.6090    -0.7870    -2.0040 oh         1 77F      -0.655000
     19 C19         -0.7830    -0.9320     0.0010 c3         1 77F       0.082700
     20 C20          6.1660    -3.6820    -2.3180 c6         1 77F      -0.070900
     21 N20         -1.8030    -0.1060    -0.6000 ns         1 77F      -0.498900
     22 C32         -1.1230    -2.4240    -0.1280 c3         1 77F      -0.047100
     23 C33         -3.6150    -2.7280    -0.2810 ca         1 77F      -0.098000
     24 C34         -4.8550    -2.9590     0.2990 ca         1 77F      -0.106500
     25 C35         -4.9500    -3.2160     1.6600 ca         1 77F      -0.106000
     26 C36         -3.7980    -3.2370     2.4350 ca         1 77F      -0.106500
     27 C37         -2.5620    -2.9990     1.8520 ca         1 77F      -0.098000
     28 C38         -2.4540    -2.7410     0.4880 ca         1 77F      -0.081300
     29 S8           3.4520     0.6090     1.0810 sy         1 77F       1.199600
     30 O9           4.6770     1.2420     0.6130 o          1 77F      -0.545000
     31 O10          3.4470    -0.0070     2.4020 o          1 77F      -0.545000
     32 C5           2.1420     1.7880     1.0580 ca         1 77F      -0.341500
     33 C4           1.1200     1.7210     2.0000 ca         1 77F       0.020500
     34 C6           2.0640     2.6850     0.0030 ca         1 77F       0.020500
     35 C3           0.0160     2.5370     1.8710 ca         1 77F      -0.196000
     36 C7           0.9590     3.5090    -0.1300 ca         1 77F      -0.196000
     37 C2          -0.0830     3.4280     0.7980 ca         1 77F       0.196100
     38 O1          -1.1990     4.1600     0.7410 os         1 77F      -0.326100
     39 C1          -1.3960     5.0290    -0.3600 c3         1 77F       0.145900
     40 H27         -5.1980     1.2690     0.6830 ha         1 77F       0.136000
     41 H25         -6.0000     3.7790    -2.6990 ha         1 77F       0.130000
     42 H24         -3.7150     3.3730    -3.5280 ha         1 77F       0.116000
     43 H23         -2.1660     1.9310    -2.2840 ha         1 77F       0.118000
     44 HO27        -7.1890     2.3480     0.2840 ho         1 77F       0.470000
     45 H11A         5.7630    -4.2110     0.3910 hc         1 77F       0.038950
     46 H12          3.1880    -0.8590    -2.0820 h1         1 77F       0.064200
     47 H12A         4.5300     0.0170    -1.3860 h1         1 77F       0.064200
     48 H13          3.9160    -2.9320    -0.9020 hc         1 77F       0.043700
     49 H14          4.6290    -2.4520    -3.2080 hc         1 77F       0.044700
     50 H14A         6.0190    -1.5570    -2.6160 hc         1 77F       0.044700
     51 H15          5.0880    -1.9290     1.0340 hc         1 77F       0.044700
     52 H15A         6.2930    -1.2330    -0.0380 hc         1 77F       0.044700
     53 H17          0.6500     0.5300    -0.5100 h1         1 77F       0.093700
     54 H18          7.8950    -2.8670    -1.3300 hc         1 77F       0.040200
     55 H18A         7.7000    -4.5940    -1.0950 hc         1 77F       0.040200
     56 HO18         0.6170    -1.7360    -2.1700 ho         1 77F       0.440000
     57 H19         -0.7460    -0.6720     1.0610 h1         1 77F       0.090700
     58 H20          5.4870    -4.5330    -2.1940 hc         1 77F       0.038950
     59 H20A         6.6950    -3.8400    -3.2610 hc         1 77F       0.038950
     60 HN20        -1.8530    -0.1070    -1.6070 hn         1 77F       0.323500
     61 H32         -1.1310    -2.7160    -1.1830 hc         1 77F       0.048200
     62 H32A        -0.3370    -3.0100     0.3560 hc         1 77F       0.048200
     63 H33         -3.5480    -2.5350    -1.3450 ha         1 77F       0.108000
     64 H34         -5.7470    -2.9410    -0.3150 ha         1 77F       0.112500
     65 H35         -5.9150    -3.4020     2.1130 ha         1 77F       0.112000
     66 H36         -3.8620    -3.4390     3.4970 ha         1 77F       0.112500
     67 H37         -1.6680    -3.0140     2.4650 ha         1 77F       0.108000
     68 H4           1.1680     1.0260     2.8280 ha         1 77F       0.135000
     69 H6           2.8500     2.7410    -0.7390 ha         1 77F       0.135000
     70 H3          -0.7900     2.4770     2.5890 ha         1 77F       0.134000
     71 H7           0.9250     4.1960    -0.9630 ha         1 77F       0.134000
     72 H1          -2.3680     5.4930    -0.2140 h1         1 77F       0.046033
     73 H1A         -0.6330     5.8100    -0.4040 h1         1 77F       0.046033
     74 H1B         -1.4080     4.4840    -1.3060 h1         1 77F       0.046033
     75 C16          1.7440    -1.1910     0.1380 c3         1 77F       0.193800
     76 H11          7.1470    -3.3140     0.9840 hc         1 77F       0.038950
     77 H16          1.8850    -2.2310    -0.1690 h1         1 77F       0.063200
     78 H16A         1.5140    -1.2410     1.2040 h1         1 77F       0.063200
@<TRIPOS>BOND
     1     1     2 2   
     2     1     3 1   
     3     1    21 1   
     4     3     4 ar  
     5     3     8 ar  
     6     4     5 ar  
     7     4    40 1   
     8     5     6 ar  
     9     5     9 1   
    10     6     7 ar  
    11     6    41 1   
    12     7     8 ar  
    13     7    42 1   
    14     8    43 1   
    15     9    44 1   
    16    10    15 1   
    17    10    17 1   
    18    10    45 1   
    19    10    76 1   
    20    11    12 1   
    21    11    29 1   
    22    11    75 1   
    23    12    13 1   
    24    12    46 1   
    25    12    47 1   
    26    13    14 1   
    27    13    15 1   
    28    13    48 1   
    29    14    20 1   
    30    14    49 1   
    31    14    50 1   
    32    15    51 1   
    33    15    52 1   
    34    16    18 1   
    35    16    19 1   
    36    16    53 1   
    37    16    75 1   
    38    17    20 1   
    39    17    54 1   
    40    17    55 1   
    41    18    56 1   
    42    19    21 1   
    43    19    22 1   
    44    19    57 1   
    45    20    58 1   
    46    20    59 1   
    47    21    60 1   
    48    22    28 1   
    49    22    61 1   
    50    22    62 1   
    51    23    24 ar  
    52    23    28 ar  
    53    23    63 1   
    54    24    25 ar  
    55    24    64 1   
    56    25    26 ar  
    57    25    65 1   
    58    26    27 ar  
    59    26    66 1   
    60    27    28 ar  
    61    27    67 1   
    62    29    30 2   
    63    29    31 2   
    64    29    32 1   
    65    32    33 ar  
    66    32    34 ar  
    67    33    35 ar  
    68    33    68 1   
    69    34    36 ar  
    70    34    69 1   
    71    35    37 ar  
    72    35    70 1   
    73    36    37 ar  
    74    36    71 1   
    75    37    38 1   
    76    38    39 1   
    77    39    72 1   
    78    39    73 1   
    79    39    74 1   
    80    75    77 1   
    81    75    78 1   
@<TRIPOS>SUBSTRUCTURE
     1 77F         1 TEMP              0 ****  ****    0 ROOT
