@<TRIPOS>MOLECULE
77G
   56    59     1     0     0
SMALL
No Charge or Current Charge


@<TRIPOS>ATOM
      1 N3           7.5180     0.7170    -1.8330 nc         1 77G      -0.549100
      2 C4           6.5840    -0.0390     0.1350 ca         1 77G       0.121500
      3 C6           6.5920    -0.2340    -2.0670 cd         1 77G       0.399700
      4 C7          -5.1040    -2.6330     0.3120 ca         1 77G       0.206100
      5 C8          -3.8650    -0.5520     0.0690 ca         1 77G      -0.066000
      6 C10          8.2420     1.6540     0.4110 ca         1 77G       0.452900
      7 C13         -6.3110    -1.8940     0.3920 ca         1 77G       0.086100
      8 C15         -6.2820    -0.4930     0.3090 ca         1 77G      -0.142000
      9 C17         -5.0360     1.6970     0.0610 cp         1 77G      -0.041000
     10 C20         -6.0600     2.4080    -0.6170 ca         1 77G      -0.078500
     11 C21         -3.9880     2.4470     0.6560 ca         1 77G      -0.078500
     12 C28         -6.0360     3.8120    -0.6990 ca         1 77G      -0.150000
     13 C9          -2.5770    -2.7610     0.0600 c          1 77G       0.625700
     14 C2          -3.8640    -1.9680     0.1480 ca         1 77G      -0.249600
     15 O24         -7.5190    -2.5260     0.5530 oh         1 77G      -0.507100
     16 C12         -5.0620     0.2020     0.1470 cp         1 77G      -0.051000
     17 C27         -3.9660     3.8510     0.5740 ca         1 77G      -0.150000
     18 C25         -4.9890     4.5280    -0.1030 ca         1 77G       0.173000
     19 F29         -4.9670     5.8770    -0.1820 f          1 77G      -0.177000
     20 N19         -1.4100    -2.0520    -0.0970 ns         1 77G      -0.478900
     21 C30         -0.0840    -2.6590    -0.1980 c3         1 77G       0.102000
     22 C32          1.0170    -1.5940    -0.3620 c3         1 77G      -0.095400
     23 C33          2.4310    -2.2040    -0.4700 c3         1 77G      -0.070400
     24 C31          3.5360    -1.1370    -0.6340 c3         1 77G      -0.099400
     25 N5           5.9960    -0.7260    -0.8940 na         1 77G      -0.278300
     26 C1           7.4910     0.8170    -0.4420 ca         1 77G      -0.101600
     27 N22          9.1620     2.5390    -0.0570 nv         1 77G      -1.064900
     28 N14          8.0760     1.6260     1.7420 nb         1 77G      -0.303000
     29 C16          7.1570     0.7470     2.2080 ca         1 77G       0.181900
     30 N11          6.3950    -0.0950     1.4690 nb         1 77G      -0.223000
     31 H1           6.3040    -0.6100    -3.0420 h5         1 77G       0.064800
     32 H2          -2.9360    -0.0090    -0.0720 ha         1 77G       0.108000
     33 H3          -7.2100     0.0670     0.3850 ha         1 77G       0.119000
     34 H4          -6.8720     1.8660    -1.0960 ha         1 77G       0.116500
     35 H5          -3.1940     1.9390     1.1970 ha         1 77G       0.116500
     36 H6           5.1610    -2.3380     0.1620 h1         1 77G       0.063700
     37 H7           4.9900    -2.4260    -1.6010 h1         1 77G       0.063700
     38 H8          -6.8260     4.3430    -1.2250 ha         1 77G       0.133000
     39 H9          -4.1870    -4.2890     0.3100 ho         1 77G       0.522000
     40 H10         -8.2290    -1.8500     0.5880 ho         1 77G       0.460000
     41 H11         -3.1590     4.4130     1.0370 ha         1 77G       0.133000
     42 H12         -1.4860    -1.0450    -0.1440 hn         1 77G       0.321500
     43 H13          0.1060    -3.2500     0.7090 h1         1 77G       0.058200
     44 H14         -0.0700    -3.3390    -1.0610 h1         1 77G       0.058200
     45 H15          0.8100    -0.9990    -1.2600 hc         1 77G       0.047200
     46 H16          0.9840    -0.9090     0.4950 hc         1 77G       0.047200
     47 H17          2.6370    -2.8010     0.4280 hc         1 77G       0.045200
     48 H18          2.4640    -2.8900    -1.3260 hc         1 77G       0.045200
     49 H19          3.5060    -0.4500     0.2210 hc         1 77G       0.058700
     50 H20          3.3350    -0.5410    -1.5320 hc         1 77G       0.058700
     51 H21          9.1390     2.7310    -1.0560 hn         1 77G       0.507000
     52 H22          9.4410     3.3060     0.5470 hn         1 77G       0.507000
     53 H23          7.0140     0.7130     3.2860 h5         1 77G       0.045100
     54 C26          4.9490    -1.7470    -0.7390 c3         1 77G       0.087600
     55 O23         -5.1360    -3.9980     0.3920 oh         1 77G      -0.528100
     56 O18         -2.5680    -3.9840     0.1250 o          1 77G      -0.651100
@<TRIPOS>BOND
     1     1     3 2   
     2     1    26 1   
     3     2    25 1   
     4     2    26 ar  
     5     2    30 ar  
     6     3    25 1   
     7     3    31 1   
     8     4     7 ar  
     9     4    14 ar  
    10     4    55 1   
    11     5    14 ar  
    12     5    16 ar  
    13     5    32 1   
    14     6    26 ar  
    15     6    27 1   
    16     6    28 ar  
    17     7     8 ar  
    18     7    15 1   
    19     8    16 ar  
    20     8    33 1   
    21     9    10 ar  
    22     9    11 ar  
    23     9    16 1   
    24    10    12 ar  
    25    10    34 1   
    26    11    17 ar  
    27    11    35 1   
    28    12    18 ar  
    29    12    38 1   
    30    13    14 1   
    31    13    20 1   
    32    13    56 2   
    33    15    40 1   
    34    17    18 ar  
    35    17    41 1   
    36    18    19 1   
    37    20    21 1   
    38    20    42 1   
    39    21    22 1   
    40    21    43 1   
    41    21    44 1   
    42    22    23 1   
    43    22    45 1   
    44    22    46 1   
    45    23    24 1   
    46    23    47 1   
    47    23    48 1   
    48    24    49 1   
    49    24    50 1   
    50    24    54 1   
    51    25    54 1   
    52    27    51 1   
    53    27    52 1   
    54    28    29 ar  
    55    29    30 ar  
    56    29    53 1   
    57    36    54 1   
    58    37    54 1   
    59    39    55 1   
@<TRIPOS>SUBSTRUCTURE
     1 77G         1 TEMP              0 ****  ****    0 ROOT
