@<TRIPOS>MOLECULE
77G
   56    59     1     0     0
SMALL
bcc


@<TRIPOS>ATOM
      1 N3           7.5780     0.4590    -1.7240 nc         1 77G      -0.549100
      2 C4           6.5140    -0.0900     0.2040 ca         1 77G       0.449800
      3 C6           6.6800    -0.4610    -1.9360 cd         1 77G       0.399700
      4 C7          -4.8890    -2.5510     0.3940 ca         1 77G       0.206100
      5 C8          -3.8210    -0.4190    -0.0260 ca         1 77G      -0.084000
      6 C10          8.1730     1.5850     0.4800 ca         1 77G       0.781200
      7 C13         -6.1010    -1.8690     0.6150 ca         1 77G       0.086100
      8 C15         -6.1500    -0.4960     0.5130 ca         1 77G      -0.160000
      9 C17         -5.0960     1.7190     0.0520 cp         1 77G      -0.041000
     10 C20         -6.2310     2.3260    -0.4880 ca         1 77G      -0.096500
     11 C21         -4.0450     2.5410     0.4640 ca         1 77G      -0.096500
     12 C28         -6.3220     3.7040    -0.6150 ca         1 77G      -0.168000
     13 C9          -2.4720    -2.5620    -0.1120 c          1 77G       0.692700
     14 C2          -3.7390    -1.8120     0.0890 ca         1 77G      -0.249600
     15 O24         -7.1630    -2.6350     0.9280 oh         1 77G      -0.468100
     16 C12         -5.0120     0.2520     0.1820 cp         1 77G      -0.051000
     17 C27         -4.1150     3.9200     0.3410 ca         1 77G      -0.168000
     18 C25         -5.2580     4.4790    -0.1970 ca         1 77G       0.137900
     19 F29         -5.3380     5.8140    -0.3170 f          1 77G      -0.141900
     20 N19         -1.3360    -1.8810    -0.2310 ns         1 77G      -0.545900
     21 C30         -0.0490    -2.5270    -0.4090 c3         1 77G       0.102000
     22 C32          1.0650    -1.4940    -0.4290 c3         1 77G      -0.095400
     23 C33          2.4320    -2.1460    -0.5800 c3         1 77G      -0.070400
     24 C31          3.5600    -1.1230    -0.6120 c3         1 77G      -0.099400
     25 N5           6.0070    -0.8410    -0.8120 na         1 77G      -0.249000
     26 C1           7.4880     0.7070    -0.3800 ca         1 77G      -0.232200
     27 N22          9.1400     2.4010     0.0560 nv         1 77G      -0.954500
     28 N14          7.8350     1.5870     1.7740 nb         1 77G      -0.829000
     29 C16          6.8770     0.7630     2.1950 ca         1 77G       0.707900
     30 N11          6.1690    -0.1020     1.4920 nb         1 77G      -0.749000
     31 H1           6.4630    -0.9120    -2.8930 h5         1 77G       0.064800
     32 H2          -2.9540     0.1570    -0.3230 ha         1 77G       0.126000
     33 H3          -7.0890     0.0120     0.7070 ha         1 77G       0.137000
     34 H4          -7.0580     1.7190    -0.8370 ha         1 77G       0.134500
     35 H5          -3.1600     2.1050     0.9100 ha         1 77G       0.134500
     36 H6           5.0990    -2.4490     0.1280 h1         1 77G       0.063700
     37 H7           4.9660    -2.4210    -1.6220 h1         1 77G       0.063700
     38 H8          -7.2050     4.1630    -1.0410 ha         1 77G       0.151000
     39 H9          -3.9990    -4.1840     0.2540 ho         1 77G       0.483000
     40 H10         -7.9450    -2.0850     1.0510 ho         1 77G       0.421000
     41 H11         -3.2970     4.5470     0.6700 ha         1 77G       0.151000
     42 H12         -1.3390    -0.8800    -0.1330 hn         1 77G       0.321500
     43 H13          0.1190    -3.2400     0.4030 h1         1 77G       0.058200
     44 H14         -0.0460    -3.0980    -1.3410 h1         1 77G       0.058200
     45 H15          0.9000    -0.7910    -1.2520 hc         1 77G       0.047200
     46 H16          1.0380    -0.9100     0.4960 hc         1 77G       0.047200
     47 H17          2.5940    -2.8440     0.2480 hc         1 77G       0.045200
     48 H18          2.4550    -2.7440    -1.4960 hc         1 77G       0.045200
     49 H19          3.5330    -0.5120     0.2940 hc         1 77G       0.058700
     50 H20          3.4220    -0.4430    -1.4580 hc         1 77G       0.058700
     51 H21          9.3990     2.4400    -0.9140 hn         1 77G       0.451800
     52 H22          9.5800     3.0420     0.6930 hn         1 77G       0.451800
     53 H23          6.6540     0.8140     3.2550 h5         1 77G       0.045100
     54 C26          4.9200    -1.7970    -0.7290 c3         1 77G       0.058300
     55 O23         -4.9120    -3.8780     0.4950 oh         1 77G      -0.489100
     56 O18         -2.4780    -3.8030    -0.1550 o          1 77G      -0.651100
@<TRIPOS>BOND
     1     1     3 2   
     2     1    26 1   
     3     2    25 1   
     4     2    26 ar  
     5     2    30 ar  
     6     3    25 1   
     7     3    31 1   
     8     4     7 ar  
     9     4    14 ar  
    10     4    55 1   
    11     5    14 ar  
    12     5    16 ar  
    13     5    32 1   
    14     6    26 ar  
    15     6    27 1   
    16     6    28 ar  
    17     7     8 ar  
    18     7    15 1   
    19     8    16 ar  
    20     8    33 1   
    21     9    10 ar  
    22     9    11 ar  
    23     9    16 1   
    24    10    12 ar  
    25    10    34 1   
    26    11    17 ar  
    27    11    35 1   
    28    12    18 ar  
    29    12    38 1   
    30    13    14 1   
    31    13    20 1   
    32    13    56 2   
    33    15    40 1   
    34    17    18 ar  
    35    17    41 1   
    36    18    19 1   
    37    20    21 1   
    38    20    42 1   
    39    21    22 1   
    40    21    43 1   
    41    21    44 1   
    42    22    23 1   
    43    22    45 1   
    44    22    46 1   
    45    23    24 1   
    46    23    47 1   
    47    23    48 1   
    48    24    49 1   
    49    24    50 1   
    50    24    54 1   
    51    25    54 1   
    52    27    51 1   
    53    27    52 1   
    54    28    29 ar  
    55    29    30 ar  
    56    29    53 1   
    57    36    54 1   
    58    37    54 1   
    59    39    55 1   
@<TRIPOS>SUBSTRUCTURE
     1 77G         1 TEMP              0 ****  ****    0 ROOT
