@<TRIPOS>MOLECULE
77H
   56    59     1     0     0
SMALL
No Charge or Current Charge


@<TRIPOS>ATOM
      1 N3          -7.5100     0.9070     2.1740 nc         1 77H      -0.531100
      2 C4          -8.3000     1.9490     0.0190 ca         1 77H       0.218900
      3 C5          -6.6640     0.2090     0.1490 ca         1 77H       0.143500
      4 C7          -6.5970    -0.0710     2.3380 cd         1 77H       0.409700
      5 C8           4.9720    -2.5970    -0.4280 ca         1 77H       0.137100
      6 C13          6.1880    -1.8880    -0.4970 ca         1 77H       0.098100
      7 C17          5.0260     1.7110     0.0430 cp         1 77H      -0.045000
      8 C20          3.9830     2.5180    -0.4820 ca         1 77H      -0.076000
      9 C21          6.0880     2.3600     0.7250 ca         1 77H      -0.076000
     10 C24          5.0620     4.5310     0.3500 ca         1 77H       0.174000
     11 C26          4.0010     3.9160    -0.3290 ca         1 77H      -0.151000
     12 C1          -7.5290     1.0600     0.7940 ca         1 77H      -0.088600
     13 C2           3.7520    -1.9160    -0.2040 ca         1 77H      -0.230600
     14 N6          -6.0540    -0.5300     1.1270 na         1 77H      -0.294300
     15 C9           3.7930    -0.5050    -0.0530 ca         1 77H      -0.073000
     16 N10         -8.1850     1.9570    -1.3280 nb         1 77H      -0.256000
     17 C11          2.4500    -2.6860    -0.1290 c          1 77H       0.625700
     18 C12          5.0080     0.2230    -0.1200 cp         1 77H      -0.048000
     19 C14         -7.3060     1.0820    -1.8510 ca         1 77H       0.387900
     20 N15         -6.5320     0.2000    -1.1920 nb         1 77H      -0.260000
     21 C16          6.2060    -0.4960    -0.3440 ca         1 77H      -0.089000
     22 O18          2.4150    -3.9050    -0.2570 o          1 77H      -0.655100
     23 N19          1.3020    -1.9630     0.0900 ns         1 77H      -0.476900
     24 O23          7.3540    -2.5670    -0.7170 oh         1 77H      -0.533100
     25 C25          6.1050     3.7570     0.8780 ca         1 77H      -0.151000
     26 F27          5.0790     5.8740     0.4970 f          1 77H      -0.177000
     27 C29         -0.0350    -2.5470     0.1900 c3         1 77H       0.101000
     28 C30         -3.6110    -0.9760     0.7850 c3         1 77H      -0.100400
     29 C31         -1.1080    -1.4690     0.4320 c3         1 77H      -0.096400
     30 C32         -2.5330    -2.0550     0.5420 c3         1 77H      -0.070400
     31 N33         -7.1900     1.0870    -3.2010 nv         1 77H      -1.055900
     32 H1          -9.0040     2.6480     0.4680 h4         1 77H       0.037100
     33 H2          -6.2820    -0.4890     3.2870 h5         1 77H       0.064800
     34 H3           3.1600     2.0590    -1.0250 ha         1 77H       0.119000
     35 H4           6.8990     1.7730     1.1510 ha         1 77H       0.119000
     36 H5           3.1970     4.5220    -0.7390 ha         1 77H       0.133000
     37 H6          -5.0680    -2.2830     1.7220 h1         1 77H       0.061700
     38 H7          -5.2790    -2.1030    -0.0290 h1         1 77H       0.061700
     39 H8           2.8800     0.0520     0.1360 ha         1 77H       0.107000
     40 H9           7.1540     0.0300    -0.4140 ha         1 77H       0.135000
     41 H10          1.4020    -0.9620     0.1870 hn         1 77H       0.322500
     42 H11          4.0340    -4.2440    -0.4960 ho         1 77H       0.536000
     43 H12          7.1070    -3.5170    -0.7940 ho         1 77H       0.488000
     44 H13          6.9240     4.2400     1.4060 ha         1 77H       0.133000
     45 H14         -0.2560    -3.0860    -0.7410 h1         1 77H       0.058200
     46 H15         -0.0450    -3.2700     1.0170 h1         1 77H       0.058200
     47 H16         -3.5860    -0.2480    -0.0360 hc         1 77H       0.059200
     48 H17         -3.3760    -0.4290     1.7070 hc         1 77H       0.059200
     49 H18         -0.8690    -0.9250     1.3540 hc         1 77H       0.048200
     50 H19         -1.0790    -0.7420    -0.3900 hc         1 77H       0.048200
     51 H20         -2.5600    -2.7840     1.3630 hc         1 77H       0.045200
     52 H21         -2.7700    -2.6010    -0.3790 hc         1 77H       0.045200
     53 H22         -7.9000     1.5690    -3.7470 hn         1 77H       0.493500
     54 H23         -6.7120     0.3100    -3.6520 hn         1 77H       0.493500
     55 C28         -5.0330    -1.5620     0.8950 c3         1 77H       0.089600
     56 O22          4.9870    -3.9560    -0.5820 oh         1 77H      -0.578100
@<TRIPOS>BOND
     1     1     4 2   
     2     1    12 1   
     3     2    12 ar  
     4     2    16 ar  
     5     2    32 1   
     6     3    12 ar  
     7     3    14 1   
     8     3    20 ar  
     9     4    14 1   
    10     4    33 1   
    11     5     6 ar  
    12     5    13 ar  
    13     5    56 1   
    14     6    21 ar  
    15     6    24 1   
    16     7     8 ar  
    17     7     9 ar  
    18     7    18 1   
    19     8    11 ar  
    20     8    34 1   
    21     9    25 ar  
    22     9    35 1   
    23    10    11 ar  
    24    10    25 ar  
    25    10    26 1   
    26    11    36 1   
    27    13    15 ar  
    28    13    17 1   
    29    14    55 1   
    30    15    18 ar  
    31    15    39 1   
    32    16    19 ar  
    33    17    22 2   
    34    17    23 1   
    35    18    21 ar  
    36    19    20 ar  
    37    19    31 1   
    38    21    40 1   
    39    23    27 1   
    40    23    41 1   
    41    24    43 1   
    42    25    44 1   
    43    27    29 1   
    44    27    45 1   
    45    27    46 1   
    46    28    30 1   
    47    28    47 1   
    48    28    48 1   
    49    28    55 1   
    50    29    30 1   
    51    29    49 1   
    52    29    50 1   
    53    30    51 1   
    54    30    52 1   
    55    31    53 1   
    56    31    54 1   
    57    37    55 1   
    58    38    55 1   
    59    42    56 1   
@<TRIPOS>SUBSTRUCTURE
     1 77H         1 TEMP              0 ****  ****    0 ROOT
