@<TRIPOS>MOLECULE
77H
   56    59     1     0     0
SMALL
bcc


@<TRIPOS>ATOM
      1 N3          -7.6620     0.0750     2.2630 nc         1 77H      -0.531100
      2 C4          -8.2180     1.8020     0.4760 ca         1 77H       0.547200
      3 C5          -6.5940     0.1170     0.2500 ca         1 77H       0.471800
      4 C7          -6.7780    -0.8720     2.1830 cd         1 77H       0.409700
      5 C8           4.8110    -2.5190     0.0800 ca         1 77H       0.137100
      6 C13          6.0460    -1.8490     0.1470 ca         1 77H       0.098100
      7 C17          4.9840     1.7490    -0.1810 cp         1 77H      -0.045000
      8 C20          4.1420     2.4520    -1.0450 ca         1 77H      -0.094000
      9 C21          5.8980     2.4750     0.5840 ca         1 77H      -0.094000
     10 C24          5.1230     4.5140    -0.3700 ca         1 77H       0.138900
     11 C26          4.2020     3.8340    -1.1430 ca         1 77H      -0.169000
     12 C1          -7.5700     0.7220     1.0510 ca         1 77H      -0.219200
     13 C2           3.6310    -1.7790    -0.0460 ca         1 77H      -0.230600
     14 N6          -6.1010    -0.9090     0.9920 na         1 77H      -0.265000
     15 C9           3.7020    -0.3850    -0.1350 ca         1 77H      -0.091000
     16 N10         -7.9010     2.2040    -0.7430 nb         1 77H      -0.782000
     17 C11          2.3510    -2.5340    -0.0810 c          1 77H       0.692700
     18 C12          4.9150     0.2780    -0.0830 cp         1 77H      -0.048000
     19 C14         -6.9370     1.5390    -1.4130 ca         1 77H       0.913900
     20 N15         -6.2510     0.4830    -0.9700 nb         1 77H      -0.786000
     21 C16          6.0880    -0.4740     0.0640 ca         1 77H      -0.107000
     22 O18          2.3620    -3.7750    -0.1590 o          1 77H      -0.655100
     23 N19          1.2070    -1.8610    -0.0140 ns         1 77H      -0.543900
     24 O23          7.1940    -2.5390     0.2780 oh         1 77H      -0.494100
     25 C25          5.9750     3.8570     0.4960 ca         1 77H      -0.169000
     26 F27          5.1930     5.8510    -0.4650 f          1 77H      -0.141900
     27 C29         -0.0940    -2.5040    -0.0410 c3         1 77H       0.101000
     28 C30         -3.6620    -1.1700     0.6920 c3         1 77H      -0.100400
     29 C31         -1.1810    -1.5120     0.3380 c3         1 77H      -0.096400
     30 C32         -2.5630    -2.1490     0.2980 c3         1 77H      -0.070400
     31 N33         -6.6190     2.0190    -2.6350 nv         1 77H      -0.945500
     32 H1          -8.9980     2.3500     0.9940 h4         1 77H       0.037100
     33 H2          -6.5630    -1.5920     2.9590 h5         1 77H       0.064800
     34 H3           3.4390     1.9180    -1.6710 ha         1 77H       0.137000
     35 H4           6.5540     1.9620     1.2760 ha         1 77H       0.137000
     36 H5           3.5520     4.3700    -1.8220 ha         1 77H       0.151000
     37 H6          -5.0920    -2.6780     1.2890 h1         1 77H       0.061700
     38 H7          -5.2350    -2.1840    -0.3890 h1         1 77H       0.061700
     39 H8           2.8010     0.2060    -0.2390 ha         1 77H       0.125000
     40 H9           7.0530     0.0180     0.0840 ha         1 77H       0.153000
     41 H10          1.2210    -0.8580     0.0700 hn         1 77H       0.322500
     42 H11          3.9110    -4.1600     0.0260 ho         1 77H       0.497000
     43 H12          7.0180    -3.4880     0.2760 ho         1 77H       0.449000
     44 H13          6.6840     4.4120     1.0960 ha         1 77H       0.151000
     45 H14         -0.2900    -2.9110    -1.0370 h1         1 77H       0.058200
     46 H15         -0.0940    -3.3440     0.6570 h1         1 77H       0.058200
     47 H16         -3.6370    -0.3010     0.0280 hc         1 77H       0.059200
     48 H17         -3.4870    -0.8030     1.7070 hc         1 77H       0.059200
     49 H18         -0.9820    -1.1220     1.3410 hc         1 77H       0.048200
     50 H19         -1.1530    -0.6580    -0.3470 hc         1 77H       0.048200
     51 H20         -2.5850    -3.0130     0.9700 hc         1 77H       0.045200
     52 H21         -2.7610    -2.5320    -0.7080 hc         1 77H       0.045200
     53 H22         -7.2520     2.6620    -3.0770 hn         1 77H       0.438300
     54 H23         -6.0590     1.4470    -3.2450 hn         1 77H       0.438300
     55 C28         -5.0360    -1.8190     0.6200 c3         1 77H       0.060300
     56 O22          4.8510    -3.8530     0.1450 oh         1 77H      -0.539100
@<TRIPOS>BOND
     1     1     4 2   
     2     1    12 1   
     3     2    12 ar  
     4     2    16 ar  
     5     2    32 1   
     6     3    12 ar  
     7     3    14 1   
     8     3    20 ar  
     9     4    14 1   
    10     4    33 1   
    11     5     6 ar  
    12     5    13 ar  
    13     5    56 1   
    14     6    21 ar  
    15     6    24 1   
    16     7     8 ar  
    17     7     9 ar  
    18     7    18 1   
    19     8    11 ar  
    20     8    34 1   
    21     9    25 ar  
    22     9    35 1   
    23    10    11 ar  
    24    10    25 ar  
    25    10    26 1   
    26    11    36 1   
    27    13    15 ar  
    28    13    17 1   
    29    14    55 1   
    30    15    18 ar  
    31    15    39 1   
    32    16    19 ar  
    33    17    22 2   
    34    17    23 1   
    35    18    21 ar  
    36    19    20 ar  
    37    19    31 1   
    38    21    40 1   
    39    23    27 1   
    40    23    41 1   
    41    24    43 1   
    42    25    44 1   
    43    27    29 1   
    44    27    45 1   
    45    27    46 1   
    46    28    30 1   
    47    28    47 1   
    48    28    48 1   
    49    28    55 1   
    50    29    30 1   
    51    29    49 1   
    52    29    50 1   
    53    30    51 1   
    54    30    52 1   
    55    31    53 1   
    56    31    54 1   
    57    37    55 1   
    58    38    55 1   
    59    42    56 1   
@<TRIPOS>SUBSTRUCTURE
     1 77H         1 TEMP              0 ****  ****    0 ROOT
