@<TRIPOS>MOLECULE
77I
   86    91     1     0     0
SMALL
abcg2


@<TRIPOS>ATOM
      1 C10         -9.3550   -13.4720   -20.1300 c3         1 77I       0.148900
      2 C13         -8.7440   -11.2790   -20.8630 ca         1 77I       0.153100
      3 C15         -6.5900   -10.7770   -21.8170 ca         1 77I      -0.052500
      4 C17         -6.9490    -9.4460   -21.9490 ca         1 77I       0.202000
      5 C20          3.0040   -10.1210   -22.3850 ca         1 77I       0.140100
      6 C21          2.1960    -9.3520   -23.2190 ca         1 77I      -0.172500
      7 C22          0.8310    -9.2810   -22.9830 ca         1 77I      -0.057500
      8 C24         -2.0160   -10.8390   -16.9010 ca         1 77I      -0.174500
      9 C26         -0.1390    -9.3750   -17.2990 ca         1 77I      -0.174500
     10 C28         -1.5920    -9.9880   -19.1430 ca         1 77I      -0.084800
     11 C01         -5.8890    -8.9680   -24.9570 c3         1 77I       0.279000
     12 C02          2.2760   -10.5700   -11.3070 c6         1 77I       0.178800
     13 C03          3.5410   -10.7670   -10.4540 c6         1 77I      -0.074900
     14 C04          3.5810   -12.1790    -9.8390 c6         1 77I      -0.064400
     15 C05          2.1610   -12.6800    -9.5890 c6         1 77I      -0.074900
     16 C06          1.3800   -12.7930   -10.9080 c6         1 77I       0.178800
     17 C07          1.0520   -11.7380   -13.0930 c3         1 77I       0.183800
     18 C08         -0.3300   -11.0850   -12.9190 c3         1 77I      -0.119400
     19 C11         -8.2190    -9.0290   -21.5470 ca         1 77I      -0.052500
     20 C12         -9.1120    -9.9370   -21.0100 ca         1 77I      -0.164500
     21 C14         -7.4780   -11.7000   -21.2730 ca         1 77I      -0.164500
     22 C16         -6.3010    -8.0020   -23.8580 c3         1 77I       0.165800
     23 C18          1.0690   -10.7340   -21.0890 ca         1 77I      -0.057500
     24 C19          2.4310   -10.8190   -21.3200 ca         1 77I      -0.172500
     25 C23         -2.3560   -10.7380   -18.2460 ca         1 77I      -0.054000
     26 C25         -0.8910   -10.1670   -16.4220 ca         1 77I       0.153100
     27 C27         -0.4860    -9.2910   -18.6320 ca         1 77I      -0.054000
     28 C29          0.2360    -9.9550   -21.9060 ca         1 77I      -0.074800
     29 C30         -2.1990    -9.5770   -22.8030 c5         1 77I       0.183500
     30 C31         -1.2010    -9.8650   -21.6820 ce         1 77I      -0.068400
     31 C32         -2.6580    -8.1000   -22.6570 c5         1 77I      -0.063400
     32 C33         -1.9490    -9.9290   -20.5590 cf         1 77I      -0.068400
     33 C34         -3.3850    -9.7190   -21.0360 c5         1 77I       0.213500
     34 C35         -3.4760    -8.1930   -21.3510 c5         1 77I      -0.335700
     35 F01         -4.5670    -9.2200   -24.9780 f          1 77I      -0.112667
     36 F02         -6.5120   -10.1610   -24.8770 f          1 77I      -0.112667
     37 F03         -6.2100    -8.4370   -26.1600 f          1 77I      -0.112667
     38 N01          1.8810   -11.8410   -11.9020 n3         1 77I      -0.745600
     39 N02         -6.0290    -8.4890   -22.5130 nh         1 77I      -0.785300
     40 O01         -5.7320    -7.7020   -20.1530 o          1 77I      -0.536500
     41 O02         -5.0460    -6.2190   -22.0370 o          1 77I      -0.536500
     42 O03         -9.6810   -12.0950   -20.3170 os         1 77I      -0.346100
     43 O04         -0.4560   -10.2140   -15.1390 os         1 77I      -0.357100
     44 O06         -3.3690   -10.2830   -22.3490 os         1 77I      -0.432000
     45 S01         -5.1460    -7.5440   -21.4650 s6         1 77I       1.237100
     46 H1         -10.2300   -13.9260   -19.6740 h1         1 77I       0.044033
     47 H2          -9.1440   -13.9580   -21.0850 h1         1 77I       0.044033
     48 H3          -8.4940   -13.5830   -19.4660 h1         1 77I       0.044033
     49 H4          -5.6130   -11.0980   -22.1500 ha         1 77I       0.130500
     50 H5           2.6430    -8.8180   -24.0480 ha         1 77I       0.124000
     51 H6           0.2230    -8.6780   -23.6450 ha         1 77I       0.119500
     52 H7          -2.6270   -11.4410   -16.2430 ha         1 77I       0.124500
     53 H8           0.7170    -8.8370   -16.9120 ha         1 77I       0.124500
     54 H10          1.4700   -10.1370   -10.6930 h1         1 77I       0.028950
     55 H11          4.4300   -10.6080   -11.0670 hc         1 77I       0.039700
     56 H12          3.5570   -10.0110    -9.6640 hc         1 77I       0.039700
     57 H13          4.0880   -12.8660   -10.5210 hc         1 77I       0.042700
     58 H14          4.1570   -12.1730    -8.9110 hc         1 77I       0.042700
     59 H15          1.6530   -11.9820    -8.9170 hc         1 77I       0.039700
     60 H16          2.1650   -13.6490    -9.0870 hc         1 77I       0.039700
     61 H17          0.3090   -12.6480   -10.7000 h1         1 77I       0.028950
     62 H18          1.4880   -13.7980   -11.3280 h1         1 77I       0.028950
     63 H19          0.9100   -12.7490   -13.4890 h1         1 77I       0.055700
     64 H20          1.6130   -11.1770   -13.8440 h1         1 77I       0.055700
     65 H21         -0.2260   -10.0600   -12.5550 hc         1 77I       0.054700
     66 H22         -0.9170   -11.6320   -12.1770 hc         1 77I       0.054700
     67 H25         -8.4990    -7.9890   -21.6510 ha         1 77I       0.130500
     68 H26        -10.0970    -9.6240   -20.6900 ha         1 77I       0.128500
     69 H27         -7.1760   -12.7320   -21.1770 ha         1 77I       0.128500
     70 H28         -5.7680    -7.0710   -24.0310 h1         1 77I       0.093200
     71 H29         -7.3680    -7.8110   -23.9880 h1         1 77I       0.093200
     72 H30          0.6410   -11.2900   -20.2660 ha         1 77I       0.119500
     73 H31          3.0560   -11.4330   -20.6810 ha         1 77I       0.124000
     74 H32         -3.2260   -11.2770   -18.6020 ha         1 77I       0.118500
     75 H33          0.1080    -8.6770   -19.2970 ha         1 77I       0.118500
     76 H34         -1.9250    -9.8880   -23.8050 h1         1 77I       0.108700
     77 H36         -1.8290    -7.4030   -22.5700 hc         1 77I       0.067200
     78 H37         -3.2690    -7.8070   -23.5060 hc         1 77I       0.067200
     79 H39         -4.1820   -10.1280   -20.4260 h1         1 77I       0.111700
     80 H40         -3.0680    -7.5910   -20.5390 h1         1 77I       0.119700
     81 O05          4.3400   -10.1660   -22.6540 oh         1 77I      -0.535100
     82 C09         -1.1250   -11.0780   -14.2070 c3         1 77I       0.168600
     83 H9           2.4680    -9.8580   -12.1120 h1         1 77I       0.028950
     84 H23         -2.1430   -10.7120   -14.0450 h1         1 77I       0.038200
     85 H24         -1.1840   -12.0870   -14.6290 h1         1 77I       0.038200
     86 H42          4.7850   -10.7420   -22.0170 ho         1 77I       0.465000
@<TRIPOS>BOND
     1     1    42 1   
     2     1    46 1   
     3     1    47 1   
     4     1    48 1   
     5     2    20 ar  
     6     2    21 ar  
     7     2    42 1   
     8     3     4 ar  
     9     3    21 ar  
    10     3    49 1   
    11     4    19 ar  
    12     4    39 1   
    13     5     6 ar  
    14     5    24 ar  
    15     5    81 1   
    16     6     7 ar  
    17     6    50 1   
    18     7    28 ar  
    19     7    51 1   
    20     8    25 ar  
    21     8    26 ar  
    22     8    52 1   
    23     9    26 ar  
    24     9    27 ar  
    25     9    53 1   
    26    10    25 ar  
    27    10    27 ar  
    28    10    32 1   
    29    11    22 1   
    30    11    35 1   
    31    11    36 1   
    32    11    37 1   
    33    12    13 1   
    34    12    38 1   
    35    12    54 1   
    36    12    83 1   
    37    13    14 1   
    38    13    55 1   
    39    13    56 1   
    40    14    15 1   
    41    14    57 1   
    42    14    58 1   
    43    15    16 1   
    44    15    59 1   
    45    15    60 1   
    46    16    38 1   
    47    16    61 1   
    48    16    62 1   
    49    17    18 1   
    50    17    38 1   
    51    17    63 1   
    52    17    64 1   
    53    18    65 1   
    54    18    66 1   
    55    18    82 1   
    56    19    20 ar  
    57    19    67 1   
    58    20    68 1   
    59    21    69 1   
    60    22    39 1   
    61    22    70 1   
    62    22    71 1   
    63    23    24 ar  
    64    23    28 ar  
    65    23    72 1   
    66    24    73 1   
    67    25    74 1   
    68    26    43 1   
    69    27    75 1   
    70    28    30 1   
    71    29    30 1   
    72    29    31 1   
    73    29    44 1   
    74    29    76 1   
    75    30    32 2   
    76    31    34 1   
    77    31    77 1   
    78    31    78 1   
    79    32    33 1   
    80    33    34 1   
    81    33    44 1   
    82    33    79 1   
    83    34    45 1   
    84    34    80 1   
    85    39    45 1   
    86    40    45 2   
    87    41    45 2   
    88    43    82 1   
    89    81    86 1   
    90    82    84 1   
    91    82    85 1   
@<TRIPOS>SUBSTRUCTURE
     1 77I         1 TEMP              0 ****  ****    0 ROOT
