@<TRIPOS>MOLECULE
77I
   86    91     1     0     0
SMALL
No Charge or Current Charge


@<TRIPOS>ATOM
      1 C10         -9.1300   -13.9110   -20.9550 c3         1 77I       0.148900
      2 C13         -8.4860   -11.5310   -21.0570 ca         1 77I       0.153100
      3 C15         -6.5540   -10.7230   -22.3100 ca         1 77I      -0.052500
      4 C17         -6.8050    -9.3990   -21.8980 ca         1 77I       0.202000
      5 C20          2.8520   -10.4240   -22.6140 ca         1 77I       0.140100
      6 C21          2.1280    -9.4360   -23.2960 ca         1 77I      -0.172500
      7 C22          0.7650    -9.2370   -23.0140 ca         1 77I      -0.057500
      8 C24         -1.9910   -10.8160   -16.8750 ca         1 77I      -0.174500
      9 C26          0.0920    -9.6890   -17.4120 ca         1 77I      -0.174500
     10 C28         -1.5730   -10.0530   -19.1610 ca         1 77I      -0.084800
     11 C01         -6.4090    -8.5890   -24.9220 c3         1 77I       0.279000
     12 C02          2.4350   -10.4660   -11.2650 c6         1 77I       0.178800
     13 C03          3.5530   -10.5700   -10.1870 c6         1 77I      -0.074900
     14 C04          3.6120   -11.9600    -9.5000 c6         1 77I      -0.064400
     15 C05          2.1860   -12.4950    -9.2370 c6         1 77I      -0.074900
     16 C06          1.3280   -12.5580   -10.5350 c6         1 77I       0.178800
     17 C07          1.1060   -11.7990   -12.9150 c3         1 77I       0.183800
     18 C08         -0.2210   -11.0030   -12.8340 c3         1 77I      -0.119400
     19 C11         -7.9390    -9.1560   -21.0940 ca         1 77I      -0.052500
     20 C12         -8.7650   -10.2130   -20.6700 ca         1 77I      -0.164500
     21 C14         -7.3760   -11.7850   -21.8890 ca         1 77I      -0.164500
     22 C16         -6.3100    -7.6800   -23.6630 c3         1 77I       0.165800
     23 C18          0.8510   -11.0220   -21.3650 ca         1 77I      -0.057500
     24 C19          2.2140   -11.2200   -21.6490 ca         1 77I      -0.172500
     25 C23         -2.4070   -10.6790   -18.2120 ca         1 77I      -0.054000
     26 C25         -0.7340   -10.3200   -16.4710 ca         1 77I       0.153100
     27 C27         -0.3230    -9.5520   -18.7470 ca         1 77I      -0.054000
     28 C29          0.1200   -10.0240   -22.0390 ca         1 77I      -0.074800
     29 C30         -2.3820    -9.5450   -22.8320 c5         1 77I       0.183500
     30 C31         -1.3270    -9.8220   -21.7460 ce         1 77I      -0.068400
     31 C32         -2.7830    -8.0400   -22.6730 c5         1 77I      -0.063400
     32 C33         -2.0150    -9.8990   -20.5620 cf         1 77I      -0.068400
     33 C34         -3.4790    -9.6160   -20.9660 c5         1 77I       0.213500
     34 C35         -3.4690    -8.0910   -21.2530 c5         1 77I      -0.335700
     35 F01         -5.3100    -9.3650   -25.0620 f          1 77I      -0.112667
     36 F02         -7.4950    -9.3960   -24.8710 f          1 77I      -0.112667
     37 F03         -6.5190    -7.8320   -26.0370 f          1 77I      -0.112667
     38 N01          1.9310   -11.8040   -11.6770 n3         1 77I      -0.745600
     39 N02         -5.9970    -8.3250   -22.3470 nh         1 77I      -0.785300
     40 O01         -5.7750    -7.5950   -19.8550 o          1 77I      -0.536500
     41 O02         -5.1540    -5.9530   -21.6900 o          1 77I      -0.536500
     42 O03         -9.3290   -12.5280   -20.6120 os         1 77I      -0.346100
     43 O04         -0.2730   -10.4260   -15.1750 os         1 77I      -0.357100
     44 O06         -3.5200   -10.1860   -22.2710 os         1 77I      -0.432000
     45 S01         -5.1800    -7.3230   -21.1670 s6         1 77I       1.237100
     46 H1          -9.9090   -14.5330   -20.4960 h1         1 77I       0.044033
     47 H2          -9.1790   -14.0540   -22.0420 h1         1 77I       0.044033
     48 H3          -8.1560   -14.2660   -20.5960 h1         1 77I       0.044033
     49 H4          -5.7240   -10.9330   -22.9740 ha         1 77I       0.130500
     50 H5           2.6210    -8.8220   -24.0460 ha         1 77I       0.124000
     51 H6           0.2150    -8.4660   -23.5490 ha         1 77I       0.119500
     52 H7          -2.6560   -11.3100   -16.1730 ha         1 77I       0.124500
     53 H8           1.0580    -9.2990   -17.1030 ha         1 77I       0.124500
     54 H10          1.6070    -9.8690   -10.8550 h1         1 77I       0.028950
     55 H11          4.5280   -10.3570   -10.6470 hc         1 77I       0.039700
     56 H12          3.3950    -9.7870    -9.4330 hc         1 77I       0.039700
     57 H13          4.1540   -12.6680   -10.1420 hc         1 77I       0.042700
     58 H14          4.1780   -11.8950    -8.5600 hc         1 77I       0.042700
     59 H15          1.6870   -11.8410    -8.5100 hc         1 77I       0.039700
     60 H16          2.2320   -13.4900    -8.7730 hc         1 77I       0.039700
     61 H17          0.3250   -12.1770   -10.2970 h1         1 77I       0.028950
     62 H18          1.2050   -13.6120   -10.8230 h1         1 77I       0.028950
     63 H19          0.8680   -12.8350   -13.1960 h1         1 77I       0.055700
     64 H20          1.7030   -11.3870   -13.7400 h1         1 77I       0.055700
     65 H21         -0.0170    -9.9540   -12.5910 hc         1 77I       0.054700
     66 H22         -0.8440   -11.4030   -12.0270 hc         1 77I       0.054700
     67 H25         -8.1860    -8.1390   -20.8000 ha         1 77I       0.130500
     68 H26         -9.6280   -10.0070   -20.0430 ha         1 77I       0.128500
     69 H27         -7.1400   -12.7900   -22.2260 ha         1 77I       0.128500
     70 H28         -5.5530    -6.9220   -23.9040 h1         1 77I       0.093200
     71 H29         -7.2590    -7.1340   -23.5730 h1         1 77I       0.093200
     72 H30          0.3610   -11.6500   -20.6250 ha         1 77I       0.119500
     73 H31          2.7650   -11.9930   -21.1180 ha         1 77I       0.124000
     74 H32         -3.3750   -11.0760   -18.5070 ha         1 77I       0.118500
     75 H33          0.3240    -9.0420   -19.4560 ha         1 77I       0.118500
     76 H34         -2.1490    -9.8920   -23.8490 h1         1 77I       0.108700
     77 H36         -1.9170    -7.3690   -22.6990 hc         1 77I       0.067200
     78 H37         -3.4590    -7.7290   -23.4750 hc         1 77I       0.067200
     79 H39         -4.2640   -10.0000   -20.2990 h1         1 77I       0.111700
     80 H40         -2.8940    -7.5460   -20.4980 h1         1 77I       0.119700
     81 O05          4.1720   -10.6090   -22.8960 oh         1 77I      -0.535100
     82 C09         -1.0400   -11.0600   -14.1380 c3         1 77I       0.168600
     83 H9           2.8280    -9.9140   -12.1320 h1         1 77I       0.028950
     84 H23         -1.9930   -10.5360   -13.9880 h1         1 77I       0.038200
     85 H24         -1.2530   -12.1070   -14.3920 h1         1 77I       0.038200
     86 H42          4.5120   -11.3350   -22.3300 ho         1 77I       0.465000
@<TRIPOS>BOND
     1     1    42 1   
     2     1    46 1   
     3     1    47 1   
     4     1    48 1   
     5     2    20 ar  
     6     2    21 ar  
     7     2    42 1   
     8     3     4 ar  
     9     3    21 ar  
    10     3    49 1   
    11     4    19 ar  
    12     4    39 1   
    13     5     6 ar  
    14     5    24 ar  
    15     5    81 1   
    16     6     7 ar  
    17     6    50 1   
    18     7    28 ar  
    19     7    51 1   
    20     8    25 ar  
    21     8    26 ar  
    22     8    52 1   
    23     9    26 ar  
    24     9    27 ar  
    25     9    53 1   
    26    10    25 ar  
    27    10    27 ar  
    28    10    32 1   
    29    11    22 1   
    30    11    35 1   
    31    11    36 1   
    32    11    37 1   
    33    12    13 1   
    34    12    38 1   
    35    12    54 1   
    36    12    83 1   
    37    13    14 1   
    38    13    55 1   
    39    13    56 1   
    40    14    15 1   
    41    14    57 1   
    42    14    58 1   
    43    15    16 1   
    44    15    59 1   
    45    15    60 1   
    46    16    38 1   
    47    16    61 1   
    48    16    62 1   
    49    17    18 1   
    50    17    38 1   
    51    17    63 1   
    52    17    64 1   
    53    18    65 1   
    54    18    66 1   
    55    18    82 1   
    56    19    20 ar  
    57    19    67 1   
    58    20    68 1   
    59    21    69 1   
    60    22    39 1   
    61    22    70 1   
    62    22    71 1   
    63    23    24 ar  
    64    23    28 ar  
    65    23    72 1   
    66    24    73 1   
    67    25    74 1   
    68    26    43 1   
    69    27    75 1   
    70    28    30 1   
    71    29    30 1   
    72    29    31 1   
    73    29    44 1   
    74    29    76 1   
    75    30    32 2   
    76    31    34 1   
    77    31    77 1   
    78    31    78 1   
    79    32    33 1   
    80    33    34 1   
    81    33    44 1   
    82    33    79 1   
    83    34    45 1   
    84    34    80 1   
    85    39    45 1   
    86    40    45 2   
    87    41    45 2   
    88    43    82 1   
    89    81    86 1   
    90    82    84 1   
    91    82    85 1   
@<TRIPOS>SUBSTRUCTURE
     1 77I         1 TEMP              0 ****  ****    0 ROOT
