@<TRIPOS>MOLECULE
77J
   33    34     1     0     0
SMALL
bcc


@<TRIPOS>ATOM
      1 C           -0.5140     1.7100     0.0480 cc         1 77J       0.534800
      2 N           -1.4310     2.7010     0.0220 ns         1 77J      -0.470400
      3 O           -3.5910     3.3930    -0.0170 o          1 77J      -0.613500
      4 S            1.1510     2.2370     0.1130 ss         1 77J      -0.228300
      5 C1          -2.1420     0.1240    -0.0010 cd         1 77J       0.266400
      6 N1          -0.8200     0.4580     0.0320 nd         1 77J      -0.671300
      7 O1           6.4070    -1.2600    -0.2070 oh         1 77J      -0.386100
      8 C2          -3.1300     1.0650    -0.0050 cc         1 77J      -0.312200
      9 N2           5.4990    -0.2530    -0.3340 ns         1 77J      -0.450400
     10 O2           3.8500    -1.4250     0.6790 o          1 77J      -0.558100
     11 C3          -2.8040     2.4610    -0.0030 c          1 77J       0.707700
     12 C4          -2.4240    -1.3250    -0.0080 ca         1 77J      -0.067800
     13 C5          -1.4440    -2.2240     0.4170 ca         1 77J      -0.091000
     14 C6          -1.6990    -3.5870     0.4390 ca         1 77J      -0.138500
     15 C7          -2.9310    -4.0740     0.0240 ca         1 77J      -0.110000
     16 C8          -3.9080    -3.1880    -0.4150 ca         1 77J      -0.138500
     17 C9          -3.6570    -1.8250    -0.4310 ca         1 77J      -0.091000
     18 C10          2.0210     0.6450     0.0480 c3         1 77J       0.032700
     19 C11          3.5020     0.9180     0.2580 c3         1 77J      -0.161400
     20 C12          4.2850    -0.3790     0.2360 c          1 77J       0.670100
     21 HN          -1.1360     3.6710     0.0260 hn         1 77J       0.339500
     22 HO1          6.3960    -1.7370    -1.0470 ho         1 77J       0.411000
     23 H2          -4.1760     0.7990     0.0040 ha         1 77J       0.167000
     24 HN2          5.9010     0.6510    -0.5370 hn         1 77J       0.332500
     25 H5          -0.4820    -1.8530     0.7410 ha         1 77J       0.142500
     26 H6          -0.9320    -4.2690     0.7800 ha         1 77J       0.134500
     27 H7          -3.1300    -5.1380     0.0380 ha         1 77J       0.132000
     28 H8          -4.8650    -3.5590    -0.7540 ha         1 77J       0.134500
     29 H9          -4.4260    -1.1560    -0.7950 ha         1 77J       0.142500
     30 H10          1.6250    -0.0010     0.8270 h1         1 77J       0.098200
     31 H10A         1.8310     0.1850    -0.9200 h1         1 77J       0.098200
     32 H11          3.8830     1.6150    -0.4910 hc         1 77J       0.072700
     33 H11A         3.6660     1.3830     1.2340 hc         1 77J       0.072700
@<TRIPOS>BOND
     1     1     2 1   
     2     1     4 1   
     3     1     6 2   
     4     2    11 1   
     5     2    21 1   
     6     3    11 2   
     7     4    18 1   
     8     5     6 1   
     9     5     8 2   
    10     5    12 1   
    11     7     9 1   
    12     7    22 1   
    13     8    11 1   
    14     8    23 1   
    15     9    20 1   
    16     9    24 1   
    17    10    20 2   
    18    12    13 ar  
    19    12    17 ar  
    20    13    14 ar  
    21    13    25 1   
    22    14    15 ar  
    23    14    26 1   
    24    15    16 ar  
    25    15    27 1   
    26    16    17 ar  
    27    16    28 1   
    28    17    29 1   
    29    18    19 1   
    30    18    30 1   
    31    18    31 1   
    32    19    20 1   
    33    19    32 1   
    34    19    33 1   
@<TRIPOS>SUBSTRUCTURE
     1 77J         1 TEMP              0 ****  ****    0 ROOT
