@<TRIPOS>MOLECULE
77J
   33    34     1     0     0
SMALL
No Charge or Current Charge


@<TRIPOS>ATOM
      1 C           -0.5560     1.8880     0.0400 cc         1 77J       0.534800
      2 N           -1.5330     2.8170    -0.0870 ns         1 77J      -0.403400
      3 O           -3.6990     3.3710    -0.3280 o          1 77J      -0.538000
      4 S            1.1240     2.3910     0.2020 ss         1 77J      -0.276200
      5 C1          -2.0870     0.1340    -0.0730 cd         1 77J       0.266400
      6 N1          -0.7630     0.5770     0.0540 nd         1 77J      -0.671300
      7 O1           6.1080    -1.6280    -0.4060 oh         1 77J      -0.425100
      8 C2          -3.0750     1.0940    -0.2020 cc         1 77J      -0.362200
      9 N2           5.1150    -0.5760    -0.4840 ns         1 77J      -0.383400
     10 O2           4.3090    -0.9190     1.6370 o          1 77J      -0.558100
     11 C3          -2.8330     2.5200    -0.2150 c          1 77J       0.565200
     12 C4          -2.3410    -1.3360    -0.0600 ca         1 77J      -0.067800
     13 C5          -1.2650    -2.2500     0.0780 ca         1 77J      -0.073000
     14 C6          -1.4860    -3.6380     0.0920 ca         1 77J      -0.120500
     15 C7          -2.7860    -4.1460    -0.0310 ca         1 77J      -0.092000
     16 C8          -3.8650    -3.2620    -0.1690 ca         1 77J      -0.120500
     17 C9          -3.6480    -1.8730    -0.1840 ca         1 77J      -0.073000
     18 C10          2.0550     0.7950     0.3460 c3         1 77J       0.080600
     19 C11          3.5630     1.0730     0.4960 c3         1 77J      -0.161400
     20 C12          4.3460    -0.2340     0.6230 c          1 77J       0.603100
     21 HN          -1.2880     3.7950    -0.0870 hn         1 77J       0.339500
     22 HO1          5.9170    -2.1880    -1.1960 ho         1 77J       0.450000
     23 H2          -4.1190     0.8430    -0.3040 ha         1 77J       0.217000
     24 HN2          5.2350     0.1010    -1.2370 hn         1 77J       0.332500
     25 H5          -0.2420    -1.8930     0.1770 ha         1 77J       0.124500
     26 H6          -0.6450    -4.3200     0.2000 ha         1 77J       0.116500
     27 H7          -2.9570    -5.2210    -0.0210 ha         1 77J       0.114000
     28 H8          -4.8760    -3.6530    -0.2660 ha         1 77J       0.116500
     29 H9          -4.5150    -1.2300    -0.2930 ha         1 77J       0.124500
     30 H10          1.6870     0.2410     1.2210 h1         1 77J       0.098200
     31 H10A         1.8720     0.1880    -0.5510 h1         1 77J       0.098200
     32 H11          3.9050     1.6390    -0.3790 hc         1 77J       0.072700
     33 H11A         3.7170     1.6640     1.4050 hc         1 77J       0.072700
@<TRIPOS>BOND
     1     1     2 1   
     2     1     4 1   
     3     1     6 2   
     4     2    11 1   
     5     2    21 1   
     6     3    11 2   
     7     4    18 1   
     8     5     6 1   
     9     5     8 2   
    10     5    12 1   
    11     7     9 1   
    12     7    22 1   
    13     8    11 1   
    14     8    23 1   
    15     9    20 1   
    16     9    24 1   
    17    10    20 2   
    18    12    13 ar  
    19    12    17 ar  
    20    13    14 ar  
    21    13    25 1   
    22    14    15 ar  
    23    14    26 1   
    24    15    16 ar  
    25    15    27 1   
    26    16    17 ar  
    27    16    28 1   
    28    17    29 1   
    29    18    19 1   
    30    18    30 1   
    31    18    31 1   
    32    19    20 1   
    33    19    32 1   
    34    19    33 1   
@<TRIPOS>SUBSTRUCTURE
     1 77J         1 TEMP              0 ****  ****    0 ROOT
