@<TRIPOS>MOLECULE
77K
   41    43     1     0     0
SMALL
bcc


@<TRIPOS>ATOM
      1 C4          -0.8700    -0.6070     0.0780 ca         1 77K      -0.084000
      2 C5          -0.2890    -1.8770     0.1670 ca         1 77K      -0.228600
      3 C6          -1.1150    -3.0060     0.2280 ca         1 77K       0.137100
      4 C7          -2.8480     0.8990    -0.0520 cp         1 77K      -0.041000
      5 C8          -2.2930     1.9820     0.6320 ca         1 77K      -0.094500
      6 C10         -3.9900     3.4230    -0.2110 ca         1 77K       0.135900
      7 C20          4.0440     0.1680    -0.0060 cc         1 77K       0.274600
      8 C22          4.2850     2.2170    -0.5300 cd         1 77K       0.401400
      9 C24          3.4320    -1.1920    -0.0090 c3         1 77K       0.089700
     10 C1          -2.5110    -2.8460     0.1740 ca         1 77K       0.093100
     11 C2          -3.0570    -1.5840     0.0800 ca         1 77K      -0.106000
     12 C3          -2.2430    -0.4450     0.0350 cp         1 77K      -0.053000
     13 C9          -2.8550     3.2470     0.5570 ca         1 77K      -0.169500
     14 C11         -4.5730     2.3780    -0.9010 ca         1 77K      -0.169500
     15 C12         -3.9940     1.1210    -0.8170 ca         1 77K      -0.094500
     16 F13         -4.5420     4.6440    -0.2860 f          1 77K      -0.143900
     17 O14         -3.3260    -3.9160     0.2340 oh         1 77K      -0.496100
     18 O15         -0.6590    -4.2560     0.3330 oh         1 77K      -0.542100
     19 C16          1.1780    -2.1010     0.1970 c          1 77K       0.689700
     20 N17          1.9880    -1.0610     0.0260 ns         1 77K      -0.530900
     21 O18          1.6330    -3.2430     0.3810 o          1 77K      -0.665100
     22 N19          3.5070     1.1850    -0.7420 nc         1 77K      -0.689000
     23 N21          5.3010     1.9190     0.3010 na         1 77K      -0.182900
     24 C23          5.1570     0.6060     0.6530 cd         1 77K      -0.239600
     25 C25          6.3480     2.8140     0.7400 c3         1 77K       0.027600
     26 H1          -0.2480     0.2780     0.0340 ha         1 77K       0.133000
     27 H2          -1.4200     1.8390     1.2550 ha         1 77K       0.138000
     28 H3           4.1590     3.2040    -0.9520 h5         1 77K       0.058100
     29 H4           3.7340    -1.7470    -0.9030 h1         1 77K       0.062700
     30 H5           3.7810    -1.7610     0.8530 h1         1 77K       0.062700
     31 H6          -4.1350    -1.4850     0.0700 ha         1 77K       0.151000
     32 H7          -2.4230     4.0770     1.0990 ha         1 77K       0.149500
     33 H8          -5.4580     2.5400    -1.5020 ha         1 77K       0.149500
     34 H9          -4.4390     0.3070    -1.3760 ha         1 77K       0.138000
     35 H10         -2.8090    -4.7290     0.2960 ho         1 77K       0.448000
     36 H11          0.3320    -4.1820     0.3920 ho         1 77K       0.498000
     37 H12          1.6230    -0.1620    -0.2460 hn         1 77K       0.344500
     38 H13          5.8380     0.1100     1.3240 h4         1 77K       0.181000
     39 H14          6.3740     2.8650     1.8260 h1         1 77K       0.057033
     40 H15          7.3160     2.4790     0.3750 h1         1 77K       0.057033
     41 H16          6.1510     3.8090     0.3490 h1         1 77K       0.057033
@<TRIPOS>BOND
     1     1     2 ar  
     2     1    12 ar  
     3     1    26 1   
     4     2     3 ar  
     5     2    19 1   
     6     3    10 ar  
     7     3    18 1   
     8     4     5 ar  
     9     4    12 1   
    10     4    15 ar  
    11     5    13 ar  
    12     5    27 1   
    13     6    13 ar  
    14     6    14 ar  
    15     6    16 1   
    16     7     9 1   
    17     7    22 1   
    18     7    24 2   
    19     8    22 2   
    20     8    23 1   
    21     8    28 1   
    22     9    20 1   
    23     9    29 1   
    24     9    30 1   
    25    10    11 ar  
    26    10    17 1   
    27    11    12 ar  
    28    11    31 1   
    29    13    32 1   
    30    14    15 ar  
    31    14    33 1   
    32    15    34 1   
    33    17    35 1   
    34    18    36 1   
    35    19    20 1   
    36    19    21 2   
    37    20    37 1   
    38    23    24 1   
    39    23    25 1   
    40    24    38 1   
    41    25    39 1   
    42    25    40 1   
    43    25    41 1   
@<TRIPOS>SUBSTRUCTURE
     1 77K         1 TEMP              0 ****  ****    0 ROOT
