@<TRIPOS>MOLECULE
77K
   41    43     1     0     0
SMALL
No Charge or Current Charge


@<TRIPOS>ATOM
      1 C4          -0.9040    -0.7080     0.0690 ca         1 77K      -0.066000
      2 C5          -0.3360    -2.0050     0.1650 ca         1 77K      -0.228600
      3 C6          -1.2110    -3.1160     0.1740 ca         1 77K       0.137100
      4 C7          -2.8820     0.8720    -0.1150 cp         1 77K      -0.041000
      5 C8          -2.3070     1.9600     0.5920 ca         1 77K      -0.076500
      6 C10         -3.9770     3.4820    -0.3050 ca         1 77K       0.171000
      7 C20          4.0210     0.2930     0.2980 cc         1 77K       0.209300
      8 C22          4.0810     2.4470     0.2170 cd         1 77K       0.401400
      9 C24          3.4170    -1.0950     0.3230 c3         1 77K       0.089700
     10 C1          -2.6060    -2.9340     0.0900 ca         1 77K       0.093100
     11 C2          -3.1460    -1.6450    -0.0050 ca         1 77K      -0.088000
     12 C3          -2.3060    -0.5060    -0.0160 cp         1 77K      -0.053000
     13 C9          -2.8500     3.2540     0.4980 ca         1 77K      -0.151500
     14 C11         -4.5650     2.4250    -1.0140 ca         1 77K      -0.151500
     15 C12         -4.0230     1.1310    -0.9190 ca         1 77K      -0.076500
     16 F13         -4.4980     4.7250    -0.3950 f          1 77K      -0.179000
     17 O14         -3.4320    -4.0230     0.1030 oh         1 77K      -0.535100
     18 O15         -0.7120    -4.3870     0.2650 oh         1 77K      -0.581100
     19 C16          1.1620    -2.2130     0.2530 c          1 77K       0.622700
     20 N17          1.9520    -1.0920     0.2440 ns         1 77K      -0.463900
     21 O18          1.6530    -3.3340     0.3300 o          1 77K      -0.665100
     22 N19          3.2420     1.4180     0.2170 nc         1 77K      -0.689000
     23 N21          5.3910     1.9960     0.2960 na         1 77K      -0.161500
     24 C23          5.3500     0.6140     0.3480 cd         1 77K      -0.207000
     25 C25          6.5980     2.8340     0.3250 c3         1 77K       0.056900
     26 H1          -0.2650     0.1700     0.0430 ha         1 77K       0.115000
     27 H2          -1.4420     1.7980     1.2300 ha         1 77K       0.120000
     28 H3           3.8290     3.5000     0.1660 h5         1 77K       0.058100
     29 H4           3.8150    -1.6720    -0.5210 h1         1 77K       0.062700
     30 H5           3.7200    -1.5980     1.2510 h1         1 77K       0.062700
     31 H6          -4.2250    -1.5280    -0.0550 ha         1 77K       0.133000
     32 H7          -2.4010     4.0770     1.0480 ha         1 77K       0.131500
     33 H8          -5.4370     2.6090    -1.6360 ha         1 77K       0.131500
     34 H9          -4.4830     0.3250    -1.4860 ha         1 77K       0.120000
     35 H10         -2.8450    -4.8100     0.1760 ho         1 77K       0.487000
     36 H11          0.2800    -4.2790     0.3090 ho         1 77K       0.537000
     37 H12          1.4950    -0.1920     0.1810 hn         1 77K       0.344500
     38 H13          6.2290    -0.0160     0.4160 h4         1 77K       0.163000
     39 H14          6.8500     3.0780     1.3640 h1         1 77K       0.057033
     40 H15          7.4350     2.2940    -0.1340 h1         1 77K       0.057033
     41 H16          6.4200     3.7620    -0.2330 h1         1 77K       0.057033
@<TRIPOS>BOND
     1     1     2 ar  
     2     1    12 ar  
     3     1    26 1   
     4     2     3 ar  
     5     2    19 1   
     6     3    10 ar  
     7     3    18 1   
     8     4     5 ar  
     9     4    12 1   
    10     4    15 ar  
    11     5    13 ar  
    12     5    27 1   
    13     6    13 ar  
    14     6    14 ar  
    15     6    16 1   
    16     7     9 1   
    17     7    22 1   
    18     7    24 2   
    19     8    22 2   
    20     8    23 1   
    21     8    28 1   
    22     9    20 1   
    23     9    29 1   
    24     9    30 1   
    25    10    11 ar  
    26    10    17 1   
    27    11    12 ar  
    28    11    31 1   
    29    13    32 1   
    30    14    15 ar  
    31    14    33 1   
    32    15    34 1   
    33    17    35 1   
    34    18    36 1   
    35    19    20 1   
    36    19    21 2   
    37    20    37 1   
    38    23    24 1   
    39    23    25 1   
    40    24    38 1   
    41    25    39 1   
    42    25    40 1   
    43    25    41 1   
@<TRIPOS>SUBSTRUCTURE
     1 77K         1 TEMP              0 ****  ****    0 ROOT
