@<TRIPOS>MOLECULE
77L
   35    36     1     0     0
SMALL
No Charge or Current Charge


@<TRIPOS>ATOM
      1 C4           0.2950    -0.2030    -0.0170 ca         1 77L      -0.070000
      2 C5           1.5270    -0.9060    -0.0810 ca         1 77L      -0.232600
      3 C6           1.4840    -2.3130    -0.2200 ca         1 77L       0.139100
      4 C7          -2.2420    -0.1080    -0.0200 cp         1 77L      -0.043000
      5 C8          -2.3720     1.1670    -0.6290 ca         1 77L      -0.076500
      6 C10         -4.6810     1.3330     0.1100 ca         1 77L       0.172000
      7 C20          3.7330     3.4490    -0.3920 c3         1 77L       0.140600
      8 O18          3.9200    -0.7940    -0.0550 o          1 77L      -0.659100
      9 C16          2.8570    -0.1860    -0.0010 c          1 77L       0.626700
     10 N17          2.8240     1.1800     0.1350 ns         1 77L      -0.470900
     11 C19          4.0040     2.0510     0.2110 c3         1 77L       0.097000
     12 O21          2.5400     4.0220     0.1730 oh         1 77L      -0.670000
     13 O15          2.6430    -3.0360    -0.2870 oh         1 77L      -0.580100
     14 C1           0.2510    -2.9910    -0.2920 ca         1 77L       0.095100
     15 O14          0.2340    -4.3510    -0.4290 oh         1 77L      -0.534100
     16 C3          -0.9550    -0.8710    -0.0890 cp         1 77L      -0.050000
     17 C2          -0.9530    -2.2790    -0.2260 ca         1 77L      -0.087000
     18 C12         -3.3710    -0.6400     0.6550 ca         1 77L      -0.076500
     19 C11         -4.5810     0.0750     0.7200 ca         1 77L      -0.151000
     20 F13         -5.8430     2.0200     0.1720 f          1 77L      -0.178000
     21 C9          -3.5810     1.8820    -0.5650 ca         1 77L      -0.151000
     22 H1           0.2850     0.8760     0.1050 ha         1 77L       0.110000
     23 H2          -1.5330     1.6000    -1.1690 ha         1 77L       0.118500
     24 H3           4.6000     4.0950    -0.2010 h1         1 77L       0.034200
     25 H4           3.6240     3.3500    -1.4800 h1         1 77L       0.034200
     26 H5           1.9160     1.6220     0.1760 hn         1 77L       0.334500
     27 H6           4.8420     1.5900    -0.3270 h1         1 77L       0.067700
     28 H7           4.2940     2.1590     1.2640 h1         1 77L       0.067700
     29 H8           2.4370     4.9190    -0.2190 ho         1 77L       0.451000
     30 H9           3.3790    -2.3640    -0.2160 ho         1 77L       0.537000
     31 H10          1.1770    -4.6350    -0.4540 ho         1 77L       0.487000
     32 H11         -1.8920    -2.8220    -0.2970 ha         1 77L       0.134000
     33 H12         -3.3060    -1.6090     1.1440 ha         1 77L       0.118500
     34 H13         -5.4360    -0.3430     1.2430 ha         1 77L       0.132500
     35 H14         -3.6670     2.8560    -1.0390 ha         1 77L       0.132500
@<TRIPOS>BOND
     1     1     2 ar  
     2     1    16 ar  
     3     1    22 1   
     4     2     3 ar  
     5     2     9 1   
     6     3    13 1   
     7     3    14 ar  
     8     4     5 ar  
     9     4    16 1   
    10     4    18 ar  
    11     5    21 ar  
    12     5    23 1   
    13     6    19 ar  
    14     6    20 1   
    15     6    21 ar  
    16     7    11 1   
    17     7    12 1   
    18     7    24 1   
    19     7    25 1   
    20     8     9 2   
    21     9    10 1   
    22    10    11 1   
    23    10    26 1   
    24    11    27 1   
    25    11    28 1   
    26    12    29 1   
    27    13    30 1   
    28    14    15 1   
    29    14    17 ar  
    30    15    31 1   
    31    16    17 ar  
    32    17    32 1   
    33    18    19 ar  
    34    18    33 1   
    35    19    34 1   
    36    21    35 1   
@<TRIPOS>SUBSTRUCTURE
     1 77L         1 TEMP              0 ****  ****    0 ROOT
