@<TRIPOS>MOLECULE
77L
   35    36     1     0     0
SMALL
abcg2


@<TRIPOS>ATOM
      1 C4           0.2470    -0.1360    -0.0740 ca         1 77L      -0.070000
      2 C5           1.4730    -0.8100    -0.1230 ca         1 77L      -0.232600
      3 C6           1.4830    -2.2080    -0.2020 ca         1 77L       0.139100
      4 C7          -2.2400    -0.1020    -0.0500 cp         1 77L      -0.043000
      5 C8          -2.4080     1.1090    -0.7250 ca         1 77L      -0.076500
      6 C10         -4.6550     1.2620     0.0460 ca         1 77L       0.172000
      7 C20          3.7470     3.4010    -0.3110 c3         1 77L       0.140600
      8 O18          3.8360    -0.7680    -0.2410 o          1 77L      -0.659100
      9 C16          2.7870    -0.1170    -0.0940 c          1 77L       0.626700
     10 N17          2.8080     1.1990     0.0900 ns         1 77L      -0.470900
     11 C19          4.0210     1.9870     0.1500 c3         1 77L       0.097000
     12 O21          2.7640     3.9610     0.5330 oh         1 77L      -0.670000
     13 O15          2.5970    -2.9400    -0.2760 oh         1 77L      -0.580100
     14 C1           0.2650    -2.9100    -0.2070 ca         1 77L       0.095100
     15 O14          0.2500    -4.2550    -0.2750 oh         1 77L      -0.534100
     16 C3          -0.9540    -0.8230    -0.0940 cp         1 77L      -0.050000
     17 C2          -0.9270    -2.2220    -0.1580 ca         1 77L      -0.087000
     18 C12         -3.3220    -0.6090     0.6700 ca         1 77L      -0.076500
     19 C11         -4.5330     0.0640     0.7240 ca         1 77L      -0.151000
     20 F13         -5.8230     1.9230     0.0950 f          1 77L      -0.178000
     21 C9          -3.6100     1.7990    -0.6800 ca         1 77L      -0.151000
     22 H1           0.2160     0.9430    -0.0100 ha         1 77L       0.110000
     23 H2          -1.5980     1.5180    -1.3150 ha         1 77L       0.118500
     24 H3           4.6880     3.9630    -0.2740 h1         1 77L       0.034200
     25 H4           3.4190     3.3820    -1.3560 h1         1 77L       0.034200
     26 H5           1.9530     1.6870     0.3050 hn         1 77L       0.334500
     27 H6           4.7770     1.5440    -0.4960 h1         1 77L       0.067700
     28 H7           4.4240     1.9920     1.1680 h1         1 77L       0.067700
     29 H8           2.4340     4.7670     0.1260 ho         1 77L       0.451000
     30 H9           3.3500    -2.2870    -0.3000 ho         1 77L       0.537000
     31 H10          1.1490    -4.5970    -0.3530 ho         1 77L       0.487000
     32 H11         -1.8510    -2.7870    -0.1950 ha         1 77L       0.134000
     33 H12         -3.2200    -1.5360     1.2200 ha         1 77L       0.118500
     34 H13         -5.3630    -0.3330     1.2940 ha         1 77L       0.132500
     35 H14         -3.7310     2.7330    -1.2120 ha         1 77L       0.132500
@<TRIPOS>BOND
     1     1     2 ar  
     2     1    16 ar  
     3     1    22 1   
     4     2     3 ar  
     5     2     9 1   
     6     3    13 1   
     7     3    14 ar  
     8     4     5 ar  
     9     4    16 1   
    10     4    18 ar  
    11     5    21 ar  
    12     5    23 1   
    13     6    19 ar  
    14     6    20 1   
    15     6    21 ar  
    16     7    11 1   
    17     7    12 1   
    18     7    24 1   
    19     7    25 1   
    20     8     9 2   
    21     9    10 1   
    22    10    11 1   
    23    10    26 1   
    24    11    27 1   
    25    11    28 1   
    26    12    29 1   
    27    13    30 1   
    28    14    15 1   
    29    14    17 ar  
    30    15    31 1   
    31    16    17 ar  
    32    17    32 1   
    33    18    19 ar  
    34    18    33 1   
    35    19    34 1   
    36    21    35 1   
@<TRIPOS>SUBSTRUCTURE
     1 77L         1 TEMP              0 ****  ****    0 ROOT
