@<TRIPOS>MOLECULE
77M
   52    54     1     0     0
SMALL
bcc


@<TRIPOS>ATOM
      1 C4          -3.8140    -0.3510    -0.0820 ca         1 77M      -0.091000
      2 C5          -3.7150    -1.7460    -0.1380 ca         1 77M      -0.231600
      3 C6          -4.8790    -2.5100    -0.2690 ca         1 77M       0.139100
      4 C7          -5.1340     1.7590    -0.0790 cp         1 77M      -0.044000
      5 C8          -4.1790     2.5670    -0.6990 ca         1 77M      -0.094500
      6 C10         -5.3090     4.5260     0.0430 ca         1 77M       0.137900
      7 C20          6.7050     2.4490    -0.1600 ca         1 77M      -0.160000
      8 C21          8.0540     2.1500    -0.0420 ca         1 77M       0.158100
      9 C22          8.4500     0.8190     0.1890 ca         1 77M       0.030100
     10 C24          6.1350     0.1310     0.1800 ca         1 77M      -0.180600
     11 C1          -6.1290    -1.8670    -0.3150 ca         1 77M       0.098100
     12 C2          -6.1990    -0.4920    -0.2500 ca         1 77M      -0.107000
     13 C3          -5.0400     0.2870    -0.1380 cp         1 77M      -0.048000
     14 C9          -4.2560     3.9500    -0.6410 ca         1 77M      -0.168500
     15 C11         -6.2790     3.7650     0.6650 ca         1 77M      -0.168500
     16 C12         -6.1820     2.3830     0.6010 ca         1 77M      -0.094500
     17 F13         -5.3950     5.8650     0.1020 f          1 77M      -0.142900
     18 O14         -7.2630    -2.5800    -0.4410 oh         1 77M      -0.493100
     19 O15         -4.8920    -3.8430    -0.3560 oh         1 77M      -0.537100
     20 C16         -2.4230    -2.4730    -0.0620 c          1 77M       0.693700
     21 N17         -1.3130    -1.7820     0.1930 ns         1 77M      -0.547900
     22 O18         -2.3860    -3.7020    -0.2330 o          1 77M      -0.648100
     23 C19          5.7520     1.4500    -0.0490 ca         1 77M      -0.080000
     24 C23          7.4980    -0.1710     0.2970 ca         1 77M      -0.120000
     25 C25          5.1530    -0.9640     0.3060 c          1 77M       0.601700
     26 O26          5.4930    -2.1140     0.4930 o          1 77M      -0.502100
     27 C27          3.6880    -0.6150     0.1990 c3         1 77M      -0.113300
     28 S28          2.6920    -2.1070     0.4180 ss         1 77M      -0.240200
     29 C29          1.0630    -1.3290     0.2430 c3         1 77M      -0.036300
     30 C30         -0.0080    -2.4050     0.2950 c3         1 77M       0.114000
     31 O32          8.9530     3.1380    -0.1470 oh         1 77M      -0.487100
     32 H1          -2.9250     0.2590     0.0140 ha         1 77M       0.124000
     33 H2          -3.3680     2.1160    -1.2570 ha         1 77M       0.136500
     34 H3           6.4060     3.4740    -0.3380 ha         1 77M       0.154000
     35 H4          -7.1720    -0.0200    -0.3140 ha         1 77M       0.153000
     36 H5          -3.5130     4.5660    -1.1300 ha         1 77M       0.151000
     37 H6          -7.0920     4.2380     1.1990 ha         1 77M       0.151000
     38 H7          -6.9310     1.7870     1.1050 ha         1 77M       0.136500
     39 H8          -7.0640    -3.5240    -0.4710 ho         1 77M       0.449000
     40 H9          -3.9400    -4.1300    -0.3530 ho         1 77M       0.497000
     41 H10         -1.3760    -0.8060     0.4310 hn         1 77M       0.321500
     42 H11          4.7100     1.7220    -0.1470 ha         1 77M       0.134000
     43 H12          7.8090    -1.1930     0.4780 ha         1 77M       0.155000
     44 H13          3.4260     0.1290     0.9540 h1         1 77M       0.079700
     45 H14          3.4820    -0.1680    -0.7770 h1         1 77M       0.079700
     46 H15          0.9190    -0.6060     1.0490 h1         1 77M       0.060700
     47 H16          1.0130    -0.7950    -0.7090 h1         1 77M       0.060700
     48 H17          0.0700    -2.9750     1.2250 h1         1 77M       0.072700
     49 H18          0.1250    -3.1040    -0.5310 h1         1 77M       0.072700
     50 H19          9.9780    -0.3120     0.4640 ho         1 77M       0.443000
     51 H20          9.8510     2.7980    -0.0570 ho         1 77M       0.451000
     52 O31          9.7800     0.6150     0.2910 oh         1 77M      -0.518100
@<TRIPOS>BOND
     1     1     2 ar  
     2     1    13 ar  
     3     1    32 1   
     4     2     3 ar  
     5     2    20 1   
     6     3    11 ar  
     7     3    19 1   
     8     4     5 ar  
     9     4    13 1   
    10     4    16 ar  
    11     5    14 ar  
    12     5    33 1   
    13     6    14 ar  
    14     6    15 ar  
    15     6    17 1   
    16     7     8 ar  
    17     7    23 ar  
    18     7    34 1   
    19     8     9 ar  
    20     8    31 1   
    21     9    24 ar  
    22     9    52 1   
    23    10    23 ar  
    24    10    24 ar  
    25    10    25 1   
    26    11    12 ar  
    27    11    18 1   
    28    12    13 ar  
    29    12    35 1   
    30    14    36 1   
    31    15    16 ar  
    32    15    37 1   
    33    16    38 1   
    34    18    39 1   
    35    19    40 1   
    36    20    21 1   
    37    20    22 2   
    38    21    30 1   
    39    21    41 1   
    40    23    42 1   
    41    24    43 1   
    42    25    26 2   
    43    25    27 1   
    44    27    28 1   
    45    27    44 1   
    46    27    45 1   
    47    28    29 1   
    48    29    30 1   
    49    29    46 1   
    50    29    47 1   
    51    30    48 1   
    52    30    49 1   
    53    31    51 1   
    54    50    52 1   
@<TRIPOS>SUBSTRUCTURE
     1 77M         1 TEMP              0 ****  ****    0 ROOT
