@<TRIPOS>MOLECULE
77M
   52    54     1     0     0
SMALL
No Charge or Current Charge


@<TRIPOS>ATOM
      1 C4          -3.9010    -0.4630    -0.0650 ca         1 77M      -0.073000
      2 C5          -3.8800    -1.8820    -0.0610 ca         1 77M      -0.231600
      3 C6          -5.1170    -2.5670    -0.0970 ca         1 77M       0.139100
      4 C7          -5.1130     1.7670    -0.1070 cp         1 77M      -0.044000
      5 C8          -4.1200     2.4960    -0.8110 ca         1 77M      -0.076500
      6 C10         -5.1120     4.6030    -0.1140 ca         1 77M       0.173000
      7 C20          6.6920     2.5930     0.1510 ca         1 77M      -0.142000
      8 C21          8.0710     2.3520     0.1910 ca         1 77M       0.158100
      9 C22          8.5580     1.0320     0.2240 ca         1 77M       0.030100
     10 C24          6.2560     0.1810     0.1770 ca         1 77M      -0.180600
     11 C1          -6.3320    -1.8540    -0.1330 ca         1 77M       0.098100
     12 C2          -6.3310    -0.4540    -0.1360 ca         1 77M      -0.089000
     13 C3          -5.1160     0.2690    -0.1030 cp         1 77M      -0.048000
     14 C9          -4.1200     3.9030    -0.8150 ca         1 77M      -0.150500
     15 C11         -6.1050     3.9070     0.5890 ca         1 77M      -0.150500
     16 C12         -6.1060     2.5010     0.5920 ca         1 77M      -0.076500
     17 F13         -5.1110     5.9540    -0.1170 f          1 77M      -0.178000
     18 O14         -7.5160    -2.5370    -0.1700 oh         1 77M      -0.532100
     19 O15         -5.1520    -3.9350    -0.0950 oh         1 77M      -0.576100
     20 C16         -2.5780    -2.6570    -0.0180 c          1 77M       0.626700
     21 N17         -1.4130    -1.9300     0.0140 ns         1 77M      -0.480900
     22 O18         -2.5590    -3.8820    -0.0130 o          1 77M      -0.648100
     23 C19          5.7870     1.5180     0.1440 ca         1 77M      -0.062000
     24 C23          7.6550    -0.0470     0.2170 ca         1 77M      -0.102000
     25 C25          5.2980    -0.9990     0.1700 c          1 77M       0.601700
     26 O26          5.7300    -2.1470     0.1980 o          1 77M      -0.502100
     27 C27          3.7780    -0.7210     0.1270 c3         1 77M      -0.065400
     28 S28          2.7030    -2.2430     0.1230 ss         1 77M      -0.336000
     29 C29          1.0330    -1.4540     0.0690 c3         1 77M       0.011600
     30 C30         -0.0740    -2.5240     0.0570 c3         1 77M       0.114000
     31 O32          8.9520     3.3920     0.1980 oh         1 77M      -0.526100
     32 H1          -2.9730     0.0990    -0.0230 ha         1 77M       0.106000
     33 H2          -3.3520     1.9680    -1.3720 ha         1 77M       0.118500
     34 H3           6.3220     3.6150     0.1260 ha         1 77M       0.136000
     35 H4          -7.2800     0.0740    -0.1780 ha         1 77M       0.135000
     36 H5          -3.3550     4.4480    -1.3610 ha         1 77M       0.133000
     37 H6          -6.8700     4.4570     1.1330 ha         1 77M       0.133000
     38 H7          -6.8760     1.9760     1.1540 ha         1 77M       0.118500
     39 H8          -7.2800    -3.4930    -0.1620 ho         1 77M       0.488000
     40 H9          -4.1970    -4.2270    -0.0640 ho         1 77M       0.536000
     41 H10         -1.4990    -0.9230     0.0080 hn         1 77M       0.321500
     42 H11          4.7230     1.7420     0.1130 ha         1 77M       0.116000
     43 H12          8.0390    -1.0650     0.2420 ha         1 77M       0.137000
     44 H13          3.5270    -0.1080     1.0010 h1         1 77M       0.079700
     45 H14          3.5720    -0.1360    -0.7770 h1         1 77M       0.079700
     46 H15          0.9140    -0.8080     0.9480 h1         1 77M       0.060700
     47 H16          0.9590    -0.8350    -0.8350 h1         1 77M       0.060700
     48 H17          0.0100    -3.1460     0.9590 h1         1 77M       0.072700
     49 H18          0.0550    -3.1730    -0.8190 h1         1 77M       0.072700
     50 H19         10.0770    -0.1650     0.2810 ho         1 77M       0.482000
     51 H20          9.8450     2.9820     0.2270 ho         1 77M       0.490000
     52 O31          9.9110     0.8050     0.2620 oh         1 77M      -0.557100
@<TRIPOS>BOND
     1     1     2 ar  
     2     1    13 ar  
     3     1    32 1   
     4     2     3 ar  
     5     2    20 1   
     6     3    11 ar  
     7     3    19 1   
     8     4     5 ar  
     9     4    13 1   
    10     4    16 ar  
    11     5    14 ar  
    12     5    33 1   
    13     6    14 ar  
    14     6    15 ar  
    15     6    17 1   
    16     7     8 ar  
    17     7    23 ar  
    18     7    34 1   
    19     8     9 ar  
    20     8    31 1   
    21     9    24 ar  
    22     9    52 1   
    23    10    23 ar  
    24    10    24 ar  
    25    10    25 1   
    26    11    12 ar  
    27    11    18 1   
    28    12    13 ar  
    29    12    35 1   
    30    14    36 1   
    31    15    16 ar  
    32    15    37 1   
    33    16    38 1   
    34    18    39 1   
    35    19    40 1   
    36    20    21 1   
    37    20    22 2   
    38    21    30 1   
    39    21    41 1   
    40    23    42 1   
    41    24    43 1   
    42    25    26 2   
    43    25    27 1   
    44    27    28 1   
    45    27    44 1   
    46    27    45 1   
    47    28    29 1   
    48    29    30 1   
    49    29    46 1   
    50    29    47 1   
    51    30    48 1   
    52    30    49 1   
    53    31    51 1   
    54    50    52 1   
@<TRIPOS>SUBSTRUCTURE
     1 77M         1 TEMP              0 ****  ****    0 ROOT
