@<TRIPOS>MOLECULE
77N
   54    57     1     0     0
SMALL
No Charge or Current Charge


@<TRIPOS>ATOM
      1 N3           6.1210    -0.4070    -0.0490 nc         1 77N      -0.546100
      2 C4           4.0040     0.4420     0.2860 ca         1 77N       0.120500
      3 C6           5.2390    -1.3900     0.2160 cd         1 77N       0.401700
      4 C7          -5.0180    -1.3460    -0.1720 ca         1 77N       0.129100
      5 C8          -2.7480    -0.4810    -0.1290 ca         1 77N      -0.073000
      6 C10          5.6690     2.0850    -0.1860 ca         1 77N       0.450900
      7 C13         -5.5100    -0.0330    -0.0230 ca         1 77N       0.098100
      8 C15         -4.6240     1.0490     0.0700 ca         1 77N      -0.089000
      9 C17         -2.2710     1.9960     0.0940 cp         1 77N      -0.045000
     10 C20         -1.0860     2.0180    -0.6870 ca         1 77N      -0.072000
     11 C21         -2.5220     3.0970     0.9530 ca         1 77N      -0.072000
     12 C28         -1.6190     4.1730     1.0330 ca         1 77N      -0.153000
     13 C1           5.3160     0.7310     0.0020 ca         1 77N      -0.100600
     14 C2          -3.6270    -1.5920    -0.2220 ca         1 77N      -0.228600
     15 N5           3.9310    -0.9200     0.4230 na         1 77N      -0.283300
     16 C9          -3.1000    -3.0040    -0.3760 c          1 77N       0.626700
     17 N11          3.0640     1.4030     0.3920 nb         1 77N      -0.224000
     18 C12         -3.2250     0.8460     0.0120 cp         1 77N      -0.045000
     19 N14          4.7580     3.0650    -0.0840 nb         1 77N      -0.298000
     20 C16          3.4940     2.6730     0.2020 ca         1 77N       0.182900
     21 O18         -3.8480    -3.9610    -0.5400 o          1 77N      -0.654100
     22 N19         -1.7390    -3.1590    -0.3260 ns         1 77N      -0.479900
     23 N22          6.9400     2.4770    -0.4670 nv         1 77N      -1.060900
     24 O24         -6.8590     0.1820     0.0230 oh         1 77N      -0.533100
     25 C25         -0.4550     4.1680     0.2520 ca         1 77N       0.171000
     26 C27         -0.1870     3.0960    -0.6100 ca         1 77N      -0.153000
     27 F29          0.4110     5.2020     0.3280 f          1 77N      -0.178000
     28 O30          1.0040    -3.1970     0.0150 os         1 77N      -0.474000
     29 C31         -1.0120    -4.4200    -0.4920 c3         1 77N       0.100000
     30 C32          2.2920    -2.6740    -0.3460 c3         1 77N       0.141600
     31 C33          0.4510    -4.1560    -0.9100 c3         1 77N       0.143600
     32 H1           5.4700    -2.4480     0.2750 h5         1 77N       0.066800
     33 H2          -1.6720    -0.6260    -0.1580 ha         1 77N       0.117000
     34 H3          -5.0250     2.0540     0.1680 ha         1 77N       0.135000
     35 H4          -0.8680     1.2000    -1.3690 ha         1 77N       0.119500
     36 H5          -3.4150     3.1090     1.5740 ha         1 77N       0.119500
     37 H6           2.8700    -2.2200     1.6890 h1         1 77N       0.078700
     38 H7           1.8830    -0.9690     0.9150 h1         1 77N       0.078700
     39 H8          -1.8210     5.0080     1.6990 ha         1 77N       0.133000
     40 H9           2.7470     3.4600     0.2900 h5         1 77N       0.049100
     41 H10         -1.1880    -2.3300    -0.1500 hn         1 77N       0.335500
     42 H11          7.6710     1.7830    -0.3270 hn         1 77N       0.506000
     43 H12          7.1940     3.4460    -0.2950 hn         1 77N       0.506000
     44 H13         -5.3490    -3.2020    -0.3930 ho         1 77N       0.529000
     45 H14         -7.2800    -0.7040    -0.0620 ho         1 77N       0.487000
     46 H15          0.7130     3.1000    -1.2190 ha         1 77N       0.133000
     47 H16         -1.0280    -4.9690     0.4590 h1         1 77N       0.066700
     48 H17         -1.5040    -5.0350    -1.2560 h1         1 77N       0.066700
     49 H18          2.2390    -2.1520    -1.3120 h1         1 77N       0.038700
     50 H19          3.0390    -3.4750    -0.4210 h1         1 77N       0.038700
     51 H20          0.4610    -3.7570    -1.9330 h1         1 77N       0.041200
     52 H21          1.0200    -5.0950    -0.8970 h1         1 77N       0.041200
     53 C26          2.7070    -1.6740     0.7510 c3         1 77N       0.080600
     54 O23         -5.9050    -2.3830    -0.2680 oh         1 77N      -0.570100
@<TRIPOS>BOND
     1     1     3 2   
     2     1    13 1   
     3     2    13 ar  
     4     2    15 1   
     5     2    17 ar  
     6     3    15 1   
     7     3    32 1   
     8     4     7 ar  
     9     4    14 ar  
    10     4    54 1   
    11     5    14 ar  
    12     5    18 ar  
    13     5    33 1   
    14     6    13 ar  
    15     6    19 ar  
    16     6    23 1   
    17     7     8 ar  
    18     7    24 1   
    19     8    18 ar  
    20     8    34 1   
    21     9    10 ar  
    22     9    11 ar  
    23     9    18 1   
    24    10    26 ar  
    25    10    35 1   
    26    11    12 ar  
    27    11    36 1   
    28    12    25 ar  
    29    12    39 1   
    30    14    16 1   
    31    15    53 1   
    32    16    21 2   
    33    16    22 1   
    34    17    20 ar  
    35    19    20 ar  
    36    20    40 1   
    37    22    29 1   
    38    22    41 1   
    39    23    42 1   
    40    23    43 1   
    41    24    45 1   
    42    25    26 ar  
    43    25    27 1   
    44    26    46 1   
    45    28    30 1   
    46    28    31 1   
    47    29    31 1   
    48    29    47 1   
    49    29    48 1   
    50    30    49 1   
    51    30    50 1   
    52    30    53 1   
    53    31    51 1   
    54    31    52 1   
    55    37    53 1   
    56    38    53 1   
    57    44    54 1   
@<TRIPOS>SUBSTRUCTURE
     1 77N         1 TEMP              0 ****  ****    0 ROOT
