@<TRIPOS>MOLECULE
77N
   54    57     1     0     0
SMALL
abcg2


@<TRIPOS>ATOM
      1 N3           6.0470    -0.4760     0.4940 nc         1 77N      -0.546100
      2 C4           3.8710     0.1640     0.4230 ca         1 77N       0.120500
      3 C6           5.2640    -1.4760     0.7810 cd         1 77N       0.401700
      4 C7          -4.7860    -1.3270     0.0300 ca         1 77N       0.129100
      5 C8          -2.5990    -0.3410    -0.2430 ca         1 77N      -0.073000
      6 C10          5.3860     1.9180    -0.0730 ca         1 77N       0.450900
      7 C13         -5.2960    -0.0560     0.3460 ca         1 77N       0.098100
      8 C15         -4.4620     1.0430     0.3430 ca         1 77N      -0.089000
      9 C17         -2.2290     2.1060    -0.0310 cp         1 77N      -0.045000
     10 C20         -1.2510     2.2150    -1.0210 ca         1 77N      -0.072000
     11 C21         -2.3550     3.1490     0.8880 ca         1 77N      -0.072000
     12 C28         -1.5330     4.2640     0.8290 ca         1 77N      -0.153000
     13 C1           5.1880     0.5670     0.2650 ca         1 77N      -0.100600
     14 C2          -3.4220    -1.4720    -0.2320 ca         1 77N      -0.228600
     15 N5           3.9380    -1.1550     0.7590 na         1 77N      -0.283300
     16 C9          -2.9120    -2.8360    -0.5220 c          1 77N       0.626700
     17 N11          2.7850     0.9200     0.2830 nb         1 77N      -0.224000
     18 C12         -3.1030     0.9180     0.0320 cp         1 77N      -0.045000
     19 N14          4.3060     2.6930    -0.2160 nb         1 77N      -0.298000
     20 C16          3.0980     2.1630    -0.0330 ca         1 77N       0.182900
     21 O18         -3.6910    -3.7450    -0.8390 o          1 77N      -0.654100
     22 N19         -1.5970    -3.0270    -0.4250 ns         1 77N      -0.479900
     23 N22          6.5980     2.4440    -0.2670 nv         1 77N      -1.060900
     24 O24         -6.6030     0.1070     0.6260 oh         1 77N      -0.533100
     25 C25         -0.5760     4.3290    -0.1650 ca         1 77N       0.171000
     26 C27         -0.4210     3.3220    -1.0970 ca         1 77N      -0.153000
     27 F29          0.2290     5.4030    -0.2280 f          1 77N      -0.178000
     28 O30          1.1130    -3.3170     0.0040 os         1 77N      -0.474000
     29 C31         -0.9210    -4.2710    -0.7260 c3         1 77N       0.100000
     30 C32          2.2850    -2.6110    -0.3080 c3         1 77N       0.141600
     31 C33          0.5150    -3.9700    -1.0950 c3         1 77N       0.143600
     32 H1           5.5910    -2.4760     1.0260 h5         1 77N       0.066800
     33 H2          -1.5500    -0.4370    -0.4890 ha         1 77N       0.117000
     34 H3          -4.8900     2.0170     0.5490 ha         1 77N       0.135000
     35 H4          -1.1440     1.4370    -1.7660 ha         1 77N       0.119500
     36 H5          -3.0920     3.0880     1.6780 ha         1 77N       0.119500
     37 H6           3.1290    -2.8270     1.6700 h1         1 77N       0.078700
     38 H7           2.0340    -1.4580     1.4940 h1         1 77N       0.078700
     39 H8          -1.6320     5.0640     1.5510 ha         1 77N       0.133000
     40 H9           2.2640     2.8460    -0.1610 h5         1 77N       0.049100
     41 H10         -1.0360    -2.3240     0.0270 hn         1 77N       0.335500
     42 H11          7.4270     1.9070    -0.0770 hn         1 77N       0.506000
     43 H12          6.7010     3.4330    -0.4170 hn         1 77N       0.506000
     44 H13         -5.1910    -3.1200    -0.3510 ho         1 77N       0.529000
     45 H14         -7.0690    -0.7350     0.5460 ho         1 77N       0.487000
     46 H15          0.3240     3.4020    -1.8770 ha         1 77N       0.133000
     47 H16         -0.9640    -4.9550     0.1270 h1         1 77N       0.066700
     48 H17         -1.4110    -4.7630    -1.5650 h1         1 77N       0.066700
     49 H18          2.0780    -1.8040    -1.0230 h1         1 77N       0.038700
     50 H19          3.0410    -3.2640    -0.7630 h1         1 77N       0.038700
     51 H20          0.5350    -3.3300    -1.9860 h1         1 77N       0.041200
     52 H21          1.0410    -4.9000    -1.3390 h1         1 77N       0.041200
     53 C26          2.8140    -2.0330     0.9950 c3         1 77N       0.080600
     54 O23         -5.6640    -2.3330     0.0080 oh         1 77N      -0.570100
@<TRIPOS>BOND
     1     1     3 2   
     2     1    13 1   
     3     2    13 ar  
     4     2    15 1   
     5     2    17 ar  
     6     3    15 1   
     7     3    32 1   
     8     4     7 ar  
     9     4    14 ar  
    10     4    54 1   
    11     5    14 ar  
    12     5    18 ar  
    13     5    33 1   
    14     6    13 ar  
    15     6    19 ar  
    16     6    23 1   
    17     7     8 ar  
    18     7    24 1   
    19     8    18 ar  
    20     8    34 1   
    21     9    10 ar  
    22     9    11 ar  
    23     9    18 1   
    24    10    26 ar  
    25    10    35 1   
    26    11    12 ar  
    27    11    36 1   
    28    12    25 ar  
    29    12    39 1   
    30    14    16 1   
    31    15    53 1   
    32    16    21 2   
    33    16    22 1   
    34    17    20 ar  
    35    19    20 ar  
    36    20    40 1   
    37    22    29 1   
    38    22    41 1   
    39    23    42 1   
    40    23    43 1   
    41    24    45 1   
    42    25    26 ar  
    43    25    27 1   
    44    26    46 1   
    45    28    30 1   
    46    28    31 1   
    47    29    31 1   
    48    29    47 1   
    49    29    48 1   
    50    30    49 1   
    51    30    50 1   
    52    30    53 1   
    53    31    51 1   
    54    31    52 1   
    55    37    53 1   
    56    38    53 1   
    57    44    54 1   
@<TRIPOS>SUBSTRUCTURE
     1 77N         1 TEMP              0 ****  ****    0 ROOT
