@<TRIPOS>MOLECULE
77O
   22    23     1     0     0
SMALL
No Charge or Current Charge


@<TRIPOS>ATOM
      1 C5          -1.2070     1.8780    -0.1250 ca         1 77O       0.213900
      2 C6          -0.7070     0.5350    -0.0680 ca         1 77O       0.592900
      3 C8           1.7980     1.0490    -0.0440 c3         1 77O       0.209500
      4 C10          3.7720    -0.1920    -1.2110 cc         1 77O      -0.154000
      5 Cl1         -3.9090    -1.6480     0.2060 cl         1 77O      -0.160000
      6 C2          -2.8300    -0.2640     0.0760 ca         1 77O       0.449000
      7 C3          -3.3480     1.0640     0.0220 ca         1 77O       0.233900
      8 N4          -2.5420     2.1600    -0.0790 nb         1 77O      -0.596000
      9 N7           0.6190     0.1660    -0.1110 nu         1 77O      -0.924100
     10 C9           3.0630     0.2240    -0.1170 cd         1 77O       0.085300
     11 C11          4.8600    -0.9360    -0.7170 cc         1 77O      -0.192000
     12 C12          4.7460    -0.9310     0.6460 cd         1 77O       0.137900
     13 O13          3.6390    -0.2200     1.0550 os         1 77O      -0.226000
     14 N14         -1.4980    -0.5440     0.0310 nb         1 77O      -0.726000
     15 H1          -0.5320     2.7280    -0.2070 h4         1 77O       0.031100
     16 H2           1.7910     1.7640    -0.8780 h1         1 77O       0.060700
     17 H3           1.7970     1.6210     0.8940 h1         1 77O       0.060700
     18 H5          -4.4210     1.2440     0.0610 h4         1 77O       0.046100
     19 H6           0.7570    -0.8370    -0.0060 hn         1 77O       0.511000
     20 H7           5.6310    -1.4180    -1.3110 ha         1 77O       0.147000
     21 H8           5.3660    -1.3810     1.4110 h4         1 77O       0.057100
     22 H4           3.5490     0.0060    -2.2560 ha         1 77O       0.144000
@<TRIPOS>BOND
     1     1     2 ar  
     2     1     8 ar  
     3     1    15 1   
     4     2     9 1   
     5     2    14 ar  
     6     3     9 1   
     7     3    10 1   
     8     3    16 1   
     9     3    17 1   
    10     4    10 2   
    11     4    11 1   
    12     4    22 1   
    13     5     6 1   
    14     6     7 ar  
    15     6    14 ar  
    16     7     8 ar  
    17     7    18 1   
    18     9    19 1   
    19    10    13 1   
    20    11    12 2   
    21    11    20 1   
    22    12    13 1   
    23    12    21 1   
@<TRIPOS>SUBSTRUCTURE
     1 77O         1 TEMP              0 ****  ****    0 ROOT
