@<TRIPOS>MOLECULE
77O
   22    23     1     0     0
SMALL
abcg2


@<TRIPOS>ATOM
      1 C5          -1.0810     1.7490     0.0590 ca         1 77O       0.213900
      2 C6          -0.6910     0.3970    -0.0660 ca         1 77O       0.592900
      3 C8           1.6970     0.9200    -0.3950 c3         1 77O       0.209500
      4 C10          3.9630    -0.0510    -1.2040 cc         1 77O      -0.154000
      5 CL1         -4.0530    -1.4510     0.1710 cl         1 77O      -0.160000
      6 C2          -2.8610    -0.1950     0.1340 ca         1 77O       0.449000
      7 C3          -3.2630     1.1230     0.2790 ca         1 77O       0.233900
      8 N4          -2.3420     2.0780     0.2320 nb         1 77O      -0.596000
      9 N7           0.5900     0.0050    -0.2080 nu         1 77O      -0.924100
     10 C9           2.9940     0.2080    -0.2940 cd         1 77O       0.085300
     11 C11          4.9800    -0.7760    -0.5120 cc         1 77O      -0.192000
     12 C12          4.5430    -0.9020     0.7620 cd         1 77O       0.137900
     13 O13          3.3420    -0.3070     0.9070 os         1 77O      -0.226000
     14 N14         -1.6180    -0.5630    -0.0340 nb         1 77O      -0.726000
     15 H1          -0.3610     2.5550     0.0100 h4         1 77O       0.031100
     16 H2           1.6570     1.4160    -1.3700 h1         1 77O       0.060700
     17 H3           1.6470     1.7070     0.3630 h1         1 77O       0.060700
     18 H5          -4.2990     1.3990     0.4210 h4         1 77O       0.046100
     19 H6           0.7290    -0.9600    -0.4660 hn         1 77O       0.511000
     20 H7           5.9070    -1.1530    -0.9120 ha         1 77O       0.147000
     21 H8           4.9600    -1.3690     1.6390 h4         1 77O       0.057100
     22 H4           3.9540     0.2380    -2.2430 ha         1 77O       0.144000
@<TRIPOS>BOND
     1     1     2 ar  
     2     1     8 ar  
     3     1    15 1   
     4     2     9 1   
     5     2    14 ar  
     6     3     9 1   
     7     3    10 1   
     8     3    16 1   
     9     3    17 1   
    10     4    10 2   
    11     4    11 1   
    12     4    22 1   
    13     5     6 1   
    14     6     7 ar  
    15     6    14 ar  
    16     7     8 ar  
    17     7    18 1   
    18     9    19 1   
    19    10    13 1   
    20    11    12 2   
    21    11    20 1   
    22    12    13 1   
    23    12    21 1   
@<TRIPOS>SUBSTRUCTURE
     1 77O         1 TEMP              0 ****  ****    0 ROOT
