@<TRIPOS>MOLECULE
77Q
   56    59     1     0     0
SMALL
No Charge or Current Charge


@<TRIPOS>ATOM
      1 C5          -2.1250     2.7190     0.0540 c          1 77Q       0.626700
      2 C6          -4.7360    -0.1440     0.0380 cp         1 77Q      -0.048000
      3 C7          -5.8920     2.0040    -0.1640 ca         1 77Q       0.097100
      4 C8           7.0000    -0.0820     2.0040 cc         1 77Q      -0.164100
      5 C10          7.8690    -1.0860     1.5930 cd         1 77Q      -0.218200
      6 C13         -4.7740    -1.6390     0.1200 cp         1 77Q      -0.045000
      7 C17         -3.8740    -2.3500     0.9560 ca         1 77Q      -0.077000
      8 C20          6.5770    -0.2810    -1.6430 ca         1 77Q      -0.179000
      9 C22         -4.8480    -4.4700     0.2750 ca         1 77Q       0.173000
     10 C24         -3.9110    -3.7530     1.0330 ca         1 77Q      -0.150500
     11 C28          7.2630    -1.1700    -2.5000 ca         1 77Q       0.340900
     12 C1          -3.4440     1.9750     0.0080 ca         1 77Q      -0.232600
     13 C2          -4.6600     2.6880    -0.1160 ca         1 77Q       0.138100
     14 C3          -3.5040     0.5590     0.0830 ca         1 77Q      -0.072000
     15 N4           6.3910     0.3610     0.8110 na         1 77Q      -0.087700
     16 C9           6.8780    -0.3550    -0.2770 ca         1 77Q      -0.023200
     17 C11          7.7960    -1.2610     0.1610 ca         1 77Q      -0.158800
     18 C12         -5.9290     0.6060    -0.0880 ca         1 77Q      -0.088000
     19 O14         -2.0730     3.9410    -0.0140 o          1 77Q      -0.654100
     20 N15          8.1840    -2.0780    -2.0650 nb         1 77Q      -0.691000
     21 N16         -0.9820     1.9650     0.1760 ns         1 77Q      -0.477900
     22 C18         -5.7130    -2.3880    -0.6350 ca         1 77Q      -0.077000
     23 O19         -4.6570     4.0530    -0.1920 oh         1 77Q      -0.578100
     24 C23          8.4520    -2.1250    -0.7320 ca         1 77Q       0.391900
     25 C25         -5.7490    -3.7920    -0.5580 ca         1 77Q      -0.150500
     26 F26         -4.8840    -5.8180     0.3490 f          1 77Q      -0.178000
     27 C27          5.3750     1.4180     0.6700 c3         1 77Q       0.077600
     28 C29          0.3690     2.5210     0.2370 c3         1 77Q       0.102000
     29 C30          3.9360     0.8620     0.6050 c3         1 77Q      -0.102400
     30 C31          1.4310     1.4150     0.3870 c3         1 77Q      -0.096400
     31 C32          2.8700     1.9690     0.4540 c3         1 77Q      -0.071400
     32 H2           8.5110    -1.6560     2.2630 ha         1 77Q       0.210000
     33 H3          -3.1510    -1.8090     1.5620 ha         1 77Q       0.118500
     34 H4           5.8520     0.4230    -2.0390 ha         1 77Q       0.121000
     35 H5          -3.2180    -4.2850     1.6800 ha         1 77Q       0.133000
     36 H6           7.0700    -1.1580    -3.5720 h4         1 77Q       0.015100
     37 H7          -2.5920    -0.0240     0.1630 ha         1 77Q       0.107000
     38 H8          -6.8910     0.1010    -0.1130 ha         1 77Q       0.135000
     39 H9          -1.0960     0.9620     0.2270 hn         1 77Q       0.323500
     40 H10         -6.4100    -1.8790    -1.2960 ha         1 77Q       0.118500
     41 H11         -3.6960     4.3200    -0.1430 ho         1 77Q       0.536000
     42 H13          9.1880    -2.8530    -0.3910 h4         1 77Q       0.019100
     43 H14         -6.4710    -4.3540    -1.1450 ha         1 77Q       0.133000
     44 H15          5.4620     2.0980     1.5260 h1         1 77Q       0.059700
     45 H16          5.5890     1.9970    -0.2370 h1         1 77Q       0.059700
     46 H17          0.5590     3.0920    -0.6820 h1         1 77Q       0.058200
     47 H18          0.4310     3.2100     1.0900 h1         1 77Q       0.058200
     48 H19          3.8570     0.1660    -0.2390 hc         1 77Q       0.055200
     49 H20          3.7350     0.2850     1.5160 hc         1 77Q       0.055200
     50 H21          1.2230     0.8390     1.2980 hc         1 77Q       0.047700
     51 H22          1.3500     0.7210    -0.4590 hc         1 77Q       0.047700
     52 H23          2.9500     2.6650     1.2990 hc         1 77Q       0.045700
     53 H24          3.0770     2.5470    -0.4560 hc         1 77Q       0.045700
     54 O21         -7.0550     2.7140    -0.2810 oh         1 77Q      -0.533100
     55 H1           6.7750     0.3290     2.9840 h4         1 77Q       0.213000
     56 H12         -6.7930     3.6630    -0.3150 ho         1 77Q       0.488000
@<TRIPOS>BOND
     1     1    12 1   
     2     1    19 2   
     3     1    21 1   
     4     2     6 1   
     5     2    14 ar  
     6     2    18 ar  
     7     3    13 ar  
     8     3    18 ar  
     9     3    54 1   
    10     4     5 2   
    11     4    15 1   
    12     4    55 1   
    13     5    17 1   
    14     5    32 1   
    15     6     7 ar  
    16     6    22 ar  
    17     7    10 ar  
    18     7    33 1   
    19     8    11 ar  
    20     8    16 ar  
    21     8    34 1   
    22     9    10 ar  
    23     9    25 ar  
    24     9    26 1   
    25    10    35 1   
    26    11    20 ar  
    27    11    36 1   
    28    12    13 ar  
    29    12    14 ar  
    30    13    23 1   
    31    14    37 1   
    32    15    16 1   
    33    15    27 1   
    34    16    17 ar  
    35    17    24 ar  
    36    18    38 1   
    37    20    24 ar  
    38    21    28 1   
    39    21    39 1   
    40    22    25 ar  
    41    22    40 1   
    42    23    41 1   
    43    24    42 1   
    44    25    43 1   
    45    27    29 1   
    46    27    44 1   
    47    27    45 1   
    48    28    30 1   
    49    28    46 1   
    50    28    47 1   
    51    29    31 1   
    52    29    48 1   
    53    29    49 1   
    54    30    31 1   
    55    30    50 1   
    56    30    51 1   
    57    31    52 1   
    58    31    53 1   
    59    54    56 1   
@<TRIPOS>SUBSTRUCTURE
     1 77Q         1 TEMP              0 ****  ****    0 ROOT
