@<TRIPOS>MOLECULE
77Q
   56    59     1     0     0
SMALL
bcc


@<TRIPOS>ATOM
      1 C5          -2.0260     2.5020     0.1040 c          1 77Q       0.693700
      2 C6          -4.7280    -0.1780     0.0350 cp         1 77Q      -0.048000
      3 C7          -5.7130     1.9790    -0.4450 ca         1 77Q       0.097100
      4 C8           6.8560    -0.2560     1.8570 cc         1 77Q      -0.114100
      5 C10          7.7520    -1.2180     1.4980 cd         1 77Q      -0.168200
      6 C13         -4.8870    -1.6330     0.2320 cp         1 77Q      -0.045000
      7 C17         -4.1670    -2.3080     1.2190 ca         1 77Q      -0.095000
      8 C20          6.7850     0.1050    -1.7140 ca         1 77Q      -0.262300
      9 C22         -5.1950    -4.3640     0.6050 ca         1 77Q       0.137900
     10 C24         -4.3120    -3.6730     1.4110 ca         1 77Q      -0.168500
     11 C28          7.5400    -0.6620    -2.5770 ca         1 77Q       0.406200
     12 C1          -3.3340     1.8080    -0.0110 ca         1 77Q      -0.232600
     13 C2          -4.4550     2.5930    -0.3030 ca         1 77Q       0.138100
     14 C3          -3.4900     0.4280     0.1600 ca         1 77Q      -0.090000
     15 N4           6.3700     0.3880     0.7450 na         1 77Q      -0.058400
     16 C9           6.9390    -0.1680    -0.3570 ca         1 77Q      -0.023200
     17 C11          7.8230    -1.1820     0.0720 ca         1 77Q      -0.224100
     18 C12         -5.8380     0.6170    -0.2760 ca         1 77Q      -0.106000
     19 O14         -1.9750     3.7430     0.0820 o          1 77Q      -0.654100
     20 N15          8.3880    -1.6320    -2.1960 nb         1 77Q      -0.691000
     21 N16         -0.9200     1.7740     0.2240 ns         1 77Q      -0.544900
     22 C18         -5.7670    -2.3710    -0.5610 ca         1 77Q      -0.095000
     23 O19         -4.4160     3.9180    -0.4590 oh         1 77Q      -0.539100
     24 C23          8.5270    -1.8840    -0.9070 ca         1 77Q       0.457200
     25 C25         -5.9290    -3.7360    -0.3810 ca         1 77Q      -0.168500
     26 F26         -5.3450    -5.6870     0.7870 f          1 77Q      -0.142900
     27 C27          5.3290     1.3940     0.7440 c3         1 77Q       0.048300
     28 C29          0.4000     2.3660     0.3480 c3         1 77Q       0.102000
     29 C30          3.9430     0.8020     0.5240 c3         1 77Q      -0.102400
     30 C31          1.4670     1.2840     0.3620 c3         1 77Q      -0.096400
     31 C32          2.8620     1.8730     0.5220 c3         1 77Q      -0.071400
     32 H2           8.2940    -1.8670     2.1660 ha         1 77Q       0.160000
     33 H3          -3.4970    -1.7600     1.8700 ha         1 77Q       0.136500
     34 H4           6.1220     0.8710    -2.0940 ha         1 77Q       0.139000
     35 H5          -3.7570    -4.1860     2.1860 ha         1 77Q       0.151000
     36 H6           7.4620    -0.4940    -3.6450 h4         1 77Q       0.015100
     37 H7          -2.6350    -0.1960     0.3870 ha         1 77Q       0.125000
     38 H8          -6.8230     0.1740    -0.3610 ha         1 77Q       0.153000
     39 H9          -0.9750     0.7700     0.1960 hn         1 77Q       0.323500
     40 H10         -6.3270    -1.8810    -1.3480 ha         1 77Q       0.136500
     41 H11         -3.4770     4.1890    -0.2700 ho         1 77Q       0.497000
     42 H13          9.2190    -2.6730    -0.6310 h4         1 77Q       0.019100
     43 H14         -6.6100    -4.3010    -1.0040 ha         1 77Q       0.151000
     44 H15          5.3700     1.9190     1.7000 h1         1 77Q       0.059700
     45 H16          5.5600     2.1320    -0.0270 h1         1 77Q       0.059700
     46 H17          0.5740     3.0510    -0.4850 h1         1 77Q       0.058200
     47 H18          0.4540     2.9580     1.2650 h1         1 77Q       0.058200
     48 H19          3.9240     0.2550    -0.4230 hc         1 77Q       0.055200
     49 H20          3.7420     0.0710     1.3120 hc         1 77Q       0.055200
     50 H21          1.2720     0.5850     1.1820 hc         1 77Q       0.047700
     51 H22          1.4150     0.7060    -0.5660 hc         1 77Q       0.047700
     52 H23          2.9100     2.4460     1.4540 hc         1 77Q       0.045700
     53 H24          3.0520     2.5860    -0.2860 hc         1 77Q       0.045700
     54 O21         -6.8050     2.7140    -0.7270 oh         1 77Q      -0.494100
     55 H1           6.5210     0.0380     2.8400 h4         1 77Q       0.163000
     56 H12         -6.5770     3.6510    -0.7680 ho         1 77Q       0.449000
@<TRIPOS>BOND
     1     1    12 1   
     2     1    19 2   
     3     1    21 1   
     4     2     6 1   
     5     2    14 ar  
     6     2    18 ar  
     7     3    13 ar  
     8     3    18 ar  
     9     3    54 1   
    10     4     5 2   
    11     4    15 1   
    12     4    55 1   
    13     5    17 1   
    14     5    32 1   
    15     6     7 ar  
    16     6    22 ar  
    17     7    10 ar  
    18     7    33 1   
    19     8    11 ar  
    20     8    16 ar  
    21     8    34 1   
    22     9    10 ar  
    23     9    25 ar  
    24     9    26 1   
    25    10    35 1   
    26    11    20 ar  
    27    11    36 1   
    28    12    13 ar  
    29    12    14 ar  
    30    13    23 1   
    31    14    37 1   
    32    15    16 1   
    33    15    27 1   
    34    16    17 ar  
    35    17    24 ar  
    36    18    38 1   
    37    20    24 ar  
    38    21    28 1   
    39    21    39 1   
    40    22    25 ar  
    41    22    40 1   
    42    23    41 1   
    43    24    42 1   
    44    25    43 1   
    45    27    29 1   
    46    27    44 1   
    47    27    45 1   
    48    28    30 1   
    49    28    46 1   
    50    28    47 1   
    51    29    31 1   
    52    29    48 1   
    53    29    49 1   
    54    30    31 1   
    55    30    50 1   
    56    30    51 1   
    57    31    52 1   
    58    31    53 1   
    59    54    56 1   
@<TRIPOS>SUBSTRUCTURE
     1 77Q         1 TEMP              0 ****  ****    0 ROOT
