@<TRIPOS>MOLECULE
77R
   50    52     1     0     0
SMALL
bcc


@<TRIPOS>ATOM
      1 C4          -0.7820     2.3260     0.0760 c          1 77R       0.692700
      2 C5          -3.7510    -0.0570     0.1090 cp         1 77R      -0.048000
      3 C6          -4.5410     2.2270     0.2190 ca         1 77R       0.096100
      4 C10          8.2070    -0.7000    -1.1370 cc         1 77R       0.387400
      5 C13          7.8540    -1.0920     0.9800 cc         1 77R      -0.269600
      6 C17         -5.1530    -1.9850    -0.6370 ca         1 77R      -0.094500
      7 C20         -4.5870    -4.2230    -0.0540 ca         1 77R       0.138900
      8 C21         -5.4350    -3.3420    -0.6970 ca         1 77R      -0.169000
      9 C22         -3.4780    -3.7880     0.6450 ca         1 77R      -0.169000
     10 C24          6.4920     0.7550    -0.0480 c3         1 77R       0.043300
     11 C26          5.0720     0.2060    -0.0220 c3         1 77R      -0.097400
     12 C28          4.0450     1.3290    -0.0130 c3         1 77R      -0.072400
     13 C1          -2.1610     1.7760     0.1130 ca         1 77R      -0.233600
     14 C2          -3.2150     2.6950     0.1800 ca         1 77R       0.141100
     15 C3          -2.4480     0.4070     0.0710 ca         1 77R      -0.089000
     16 N7           9.0000    -1.7010    -0.8480 nd         1 77R      -0.670000
     17 N8           7.4960    -0.2900    -0.0670 na         1 77R      -0.189900
     18 C9          -4.7950     0.8740     0.1870 ca         1 77R      -0.105000
     19 C11         -4.0430    -1.5030     0.0580 cp         1 77R      -0.044000
     20 C12          8.7870    -1.9550     0.4770 cd         1 77R       0.296200
     21 O14         -0.6050     3.5580     0.0600 o          1 77R      -0.656100
     22 N15          0.2550     1.4960     0.0650 ns         1 77R      -0.541900
     23 C16         -3.2170    -2.4280     0.6990 ca         1 77R      -0.094500
     24 O18         -3.0470     4.0180     0.2120 oh         1 77R      -0.541100
     25 F23         -4.8490    -5.5380    -0.1100 f          1 77R      -0.141900
     26 C25          1.6250     1.9760     0.0350 c3         1 77R       0.100000
     27 C27          2.6100     0.8210     0.0200 c3         1 77R      -0.094400
     28 H2           7.4320    -0.9790     1.9640 h4         1 77R       0.173000
     29 H3          -5.8050    -1.2980    -1.1610 ha         1 77R       0.136000
     30 H4          -6.2950    -3.7050    -1.2430 ha         1 77R       0.151000
     31 H5          -2.8330    -4.4960     1.1500 ha         1 77R       0.151000
     32 H6           6.6420     1.3730    -0.9340 h1         1 77R       0.060200
     33 H7           6.6690     1.3940     0.8190 h1         1 77R       0.060200
     34 H8           4.9200    -0.4370    -0.8930 hc         1 77R       0.055200
     35 H9           4.9400    -0.4250     0.8620 hc         1 77R       0.055200
     36 H10          4.2180     1.9760     0.8530 hc         1 77R       0.045700
     37 H11          4.1850     1.9600    -0.8970 hc         1 77R       0.045700
     38 H12         -1.6490    -0.3160    -0.0220 ha         1 77R       0.124000
     39 H13         -5.8240     0.5380     0.2380 ha         1 77R       0.153000
     40 H14          9.3130    -2.7370     1.0020 h4         1 77R       0.038100
     41 H15          0.1130     0.5010     0.1110 hn         1 77R       0.323500
     42 H16         -2.3610    -2.0880     1.2690 ha         1 77R       0.136000
     43 H17         -2.0620     4.1660     0.1550 ho         1 77R       0.499000
     44 H19          1.7710     2.6020    -0.8500 h1         1 77R       0.058700
     45 H20          1.8090     2.6120     0.9050 h1         1 77R       0.058700
     46 H21          2.4240     0.1850    -0.8520 hc         1 77R       0.048200
     47 H22          2.4620     0.1950     0.9060 hc         1 77R       0.048200
     48 O19         -5.5690     3.0940     0.2950 oh         1 77R      -0.494100
     49 H1           8.1100    -0.2260    -2.1030 h5         1 77R       0.052100
     50 H18         -5.2390     4.0010     0.3130 ho         1 77R       0.449000
@<TRIPOS>BOND
     1     1    13 1   
     2     1    21 2   
     3     1    22 1   
     4     2    15 ar  
     5     2    18 ar  
     6     2    19 1   
     7     3    14 ar  
     8     3    18 ar  
     9     3    48 1   
    10     4    16 2   
    11     4    17 1   
    12     4    49 1   
    13     5    17 1   
    14     5    20 2   
    15     5    28 1   
    16     6     8 ar  
    17     6    19 ar  
    18     6    29 1   
    19     7     8 ar  
    20     7     9 ar  
    21     7    25 1   
    22     8    30 1   
    23     9    23 ar  
    24     9    31 1   
    25    10    11 1   
    26    10    17 1   
    27    10    32 1   
    28    10    33 1   
    29    11    12 1   
    30    11    34 1   
    31    11    35 1   
    32    12    27 1   
    33    12    36 1   
    34    12    37 1   
    35    13    14 ar  
    36    13    15 ar  
    37    14    24 1   
    38    15    38 1   
    39    16    20 1   
    40    18    39 1   
    41    19    23 ar  
    42    20    40 1   
    43    22    26 1   
    44    22    41 1   
    45    23    42 1   
    46    24    43 1   
    47    26    27 1   
    48    26    44 1   
    49    26    45 1   
    50    27    46 1   
    51    27    47 1   
    52    48    50 1   
@<TRIPOS>SUBSTRUCTURE
     1 77R         1 TEMP              0 ****  ****    0 ROOT
