@<TRIPOS>MOLECULE
77R
   50    52     1     0     0
SMALL
No Charge or Current Charge


@<TRIPOS>ATOM
      1 C4          -0.8780     2.6010     0.1360 c          1 77R       0.625700
      2 C5          -3.7330    -0.0170     0.0920 cp         1 77R      -0.048000
      3 C6          -4.6990     2.2290     0.2060 ca         1 77R       0.096100
      4 C10          7.9660    -1.0880    -1.2140 cc         1 77R       0.387400
      5 C13          7.8830    -1.2310     1.0020 cc         1 77R      -0.237000
      6 C17         -4.9680    -2.0900    -0.6970 ca         1 77R      -0.076500
      7 C20         -4.2250    -4.3200    -0.0750 ca         1 77R       0.174000
      8 C21         -5.1270    -3.4870    -0.7510 ca         1 77R      -0.151000
      9 C22         -3.1640    -3.7660     0.6560 ca         1 77R      -0.151000
     10 C24          6.4960     0.6260    -0.0460 c3         1 77R       0.072600
     11 C26          5.0130     0.2010    -0.0320 c3         1 77R      -0.097400
     12 C28          4.0440     1.4020     0.0090 c3         1 77R      -0.072400
     13 C1          -2.2590     1.9790     0.1430 ca         1 77R      -0.233600
     14 C2          -3.4100     2.7990     0.2020 ca         1 77R       0.141100
     15 C3          -2.4430     0.5730     0.0890 ca         1 77R      -0.071000
     16 N7           8.7500    -2.1090    -0.8940 nd         1 77R      -0.670000
     17 N8           7.4150    -0.5210    -0.0830 na         1 77R      -0.168500
     18 C9          -4.8580     0.8390     0.1510 ca         1 77R      -0.087000
     19 C11         -3.9020    -1.5040     0.0350 cp         1 77R      -0.044000
     20 C12          8.7010    -2.2010     0.4820 cd         1 77R       0.230900
     21 O14         -0.7200     3.8160     0.1800 o          1 77R      -0.656100
     22 N15          0.1970     1.7460     0.0780 ns         1 77R      -0.474900
     23 C16         -3.0040    -2.3700     0.7110 ca         1 77R      -0.076500
     24 O18         -3.2870     4.1600     0.2570 oh         1 77R      -0.580100
     25 F23         -4.3780    -5.6610    -0.1270 f          1 77R      -0.177000
     26 C25          1.5940     2.1790     0.0650 c3         1 77R       0.100000
     27 C27          2.5590     0.9780     0.0230 c3         1 77R      -0.094400
     28 H2           7.6120    -1.0070     2.0260 h4         1 77R       0.155000
     29 H3          -5.6680    -1.4590    -1.2380 ha         1 77R       0.118000
     30 H4          -5.9450    -3.9220    -1.3190 ha         1 77R       0.133000
     31 H5          -2.4710    -4.4180     1.1820 ha         1 77R       0.133000
     32 H6           6.6870     1.2590    -0.9220 h1         1 77R       0.060200
     33 H7           6.7150     1.2200     0.8510 h1         1 77R       0.060200
     34 H8           4.8050    -0.4030    -0.9240 hc         1 77R       0.055200
     35 H9           4.8330    -0.4400     0.8400 hc         1 77R       0.055200
     36 H10          4.2550     2.0060     0.9010 hc         1 77R       0.045700
     37 H11          4.2270     2.0440    -0.8630 hc         1 77R       0.045700
     38 H12         -1.5850    -0.0900     0.0270 ha         1 77R       0.106000
     39 H13         -5.8620     0.4220     0.1680 ha         1 77R       0.135000
     40 H14          9.2560    -2.9590     1.0220 h4         1 77R       0.038100
     41 H15         -0.0040     0.7570     0.0440 hn         1 77R       0.323500
     42 H16         -2.1850    -1.9570     1.2940 ha         1 77R       0.118000
     43 H17         -2.3040     4.3380     0.2410 ho         1 77R       0.538000
     44 H19          1.7590     2.8160    -0.8140 h1         1 77R       0.058700
     45 H20          1.7890     2.7770     0.9650 h1         1 77R       0.058700
     46 H21          2.3460     0.3770    -0.8700 hc         1 77R       0.048200
     47 H22          2.3750     0.3390     0.8950 hc         1 77R       0.048200
     48 O19         -5.7970     3.0420     0.2670 oh         1 77R      -0.533100
     49 H1           7.7590    -0.7190    -2.2120 h5         1 77R       0.052100
     50 H18         -5.4530     3.9640     0.2990 ho         1 77R       0.488000
@<TRIPOS>BOND
     1     1    13 1   
     2     1    21 2   
     3     1    22 1   
     4     2    15 ar  
     5     2    18 ar  
     6     2    19 1   
     7     3    14 ar  
     8     3    18 ar  
     9     3    48 1   
    10     4    16 2   
    11     4    17 1   
    12     4    49 1   
    13     5    17 1   
    14     5    20 2   
    15     5    28 1   
    16     6     8 ar  
    17     6    19 ar  
    18     6    29 1   
    19     7     8 ar  
    20     7     9 ar  
    21     7    25 1   
    22     8    30 1   
    23     9    23 ar  
    24     9    31 1   
    25    10    11 1   
    26    10    17 1   
    27    10    32 1   
    28    10    33 1   
    29    11    12 1   
    30    11    34 1   
    31    11    35 1   
    32    12    27 1   
    33    12    36 1   
    34    12    37 1   
    35    13    14 ar  
    36    13    15 ar  
    37    14    24 1   
    38    15    38 1   
    39    16    20 1   
    40    18    39 1   
    41    19    23 ar  
    42    20    40 1   
    43    22    26 1   
    44    22    41 1   
    45    23    42 1   
    46    24    43 1   
    47    26    27 1   
    48    26    44 1   
    49    26    45 1   
    50    27    46 1   
    51    27    47 1   
    52    48    50 1   
@<TRIPOS>SUBSTRUCTURE
     1 77R         1 TEMP              0 ****  ****    0 ROOT
