@<TRIPOS>MOLECULE
77S
   53    56     1     0     0
SMALL
No Charge or Current Charge


@<TRIPOS>ATOM
      1 C4          -3.1000    -0.6060    -0.0390 ca         1 77S      -0.078000
      2 C5          -2.6610    -1.7340    -0.7800 ca         1 77S      -0.169600
      3 C6          -3.6390    -2.5070    -1.4520 ca         1 77S       0.176100
      4 C7          -4.8990     0.9570     0.8290 cp         1 77S      -0.047000
      5 C8          -4.2630     1.3020     2.0490 ca         1 77S      -0.076000
      6 C10         -5.7190     3.2310     2.3140 ca         1 77S       0.175000
      7 C20          7.3030     3.3250     0.5110 ca         1 77S      -0.113000
      8 C21          6.6880     2.1370     0.9440 ca         1 77S      -0.098000
      9 C22          7.1350     0.8900     0.4650 ca         1 77S      -0.074300
     10 C24          8.8160     2.0330    -0.8880 ca         1 77S      -0.113000
     11 C26          5.2860    -0.7940     0.0820 cc         1 77S       0.537300
     12 C16         -1.1850    -2.0750    -0.8500 c          1 77S       0.624700
     13 C3          -4.4670    -0.2430     0.0440 cp         1 77S      -0.038000
     14 C12         -5.9590     1.7850     0.3750 ca         1 77S      -0.076000
     15 C11         -6.3650     2.9120     1.1120 ca         1 77S      -0.150000
     16 F13         -6.1090     4.3130     3.0220 f          1 77S      -0.177000
     17 C9          -4.6690     2.4290     2.7860 ca         1 77S      -0.150000
     18 C2          -5.4130    -1.0410    -0.6410 ca         1 77S      -0.135000
     19 O15         -3.3220    -3.6280    -2.1620 oh         1 77S      -0.507100
     20 C1          -5.0040    -2.1600    -1.3800 ca         1 77S       0.038100
     21 O14         -5.9380    -2.9300    -2.0280 oh         1 77S      -0.555100
     22 N17         -0.4080    -1.5780     0.1770 ns         1 77S      -0.510900
     23 C32          1.0460    -1.7300     0.2790 c3         1 77S       0.111000
     24 C31          1.7950    -0.7340    -0.6270 c3         1 77S      -0.129700
     25 C29          3.2850    -0.8980    -0.5360 cd         1 77S       0.426800
     26 N28          4.0800    -1.6220    -1.4000 na         1 77S      -0.188700
     27 N27          5.3950    -1.5550    -0.9950 nd         1 77S      -0.533800
     28 N30          4.0310    -0.3720     0.4090 nc         1 77S      -0.705000
     29 C23          8.2020     0.8440    -0.4550 ca         1 77S      -0.098000
     30 C19          8.3670     3.2730    -0.4040 ca         1 77S      -0.110000
     31 H1          -2.3740     0.0340     0.4560 ha         1 77S       0.123000
     32 H2          -3.4570     0.6830     2.4360 ha         1 77S       0.117500
     33 H4           5.8620     2.1850     1.6500 ha         1 77S       0.113500
     34 H5           9.6390     1.9920    -1.5980 ha         1 77S       0.110000
     35 H6          -6.4620     1.5590    -0.5620 ha         1 77S       0.117500
     36 H7          -7.1760     3.5390     0.7500 ha         1 77S       0.134000
     37 H8          -4.1750     2.6800     3.7210 ha         1 77S       0.134000
     38 H9          -6.4690    -0.7910    -0.5820 ha         1 77S       0.118000
     39 H10         -4.1780    -3.9670    -2.5080 ho         1 77S       0.486000
     40 H11         -6.8320    -2.5510    -1.8710 ho         1 77S       0.479000
     41 H12         -0.8940    -1.0900     0.9190 hn         1 77S       0.319500
     42 H13          1.3440    -1.5690     1.3240 h1         1 77S       0.067200
     43 H14          1.3210    -2.7580     0.0070 h1         1 77S       0.067200
     44 H15          1.4720    -0.8700    -1.6650 hc         1 77S       0.068700
     45 H16          1.5180     0.2880    -0.3440 hc         1 77S       0.068700
     46 H17          3.7700    -2.1380    -2.2200 hn         1 77S       0.380000
     47 H20          8.5540    -0.1120    -0.8370 ha         1 77S       0.113500
     48 H21          8.8420     4.1930    -0.7390 ha         1 77S       0.110000
     49 C25          6.4660    -0.3980     0.9310 c3         1 77S      -0.048400
     50 O18         -0.6750    -2.7050    -1.7670 o          1 77S      -0.579100
     51 H3           6.9530     4.2850     0.8850 ha         1 77S       0.110000
     52 H18          7.1930    -1.2180     0.9360 hc         1 77S       0.066700
     53 H19          6.1410    -0.2940     1.9730 hc         1 77S       0.066700
@<TRIPOS>BOND
     1     1     2 ar  
     2     1    13 ar  
     3     1    31 1   
     4     2     3 ar  
     5     2    12 1   
     6     3    19 1   
     7     3    20 ar  
     8     4     5 ar  
     9     4    13 1   
    10     4    14 ar  
    11     5    17 ar  
    12     5    32 1   
    13     6    15 ar  
    14     6    16 1   
    15     6    17 ar  
    16     7     8 ar  
    17     7    30 ar  
    18     7    51 1   
    19     8     9 ar  
    20     8    33 1   
    21     9    29 ar  
    22     9    49 1   
    23    10    29 ar  
    24    10    30 ar  
    25    10    34 1   
    26    11    27 2   
    27    11    28 1   
    28    11    49 1   
    29    12    22 1   
    30    12    50 2   
    31    13    18 ar  
    32    14    15 ar  
    33    14    35 1   
    34    15    36 1   
    35    17    37 1   
    36    18    20 ar  
    37    18    38 1   
    38    19    39 1   
    39    20    21 1   
    40    21    40 1   
    41    22    23 1   
    42    22    41 1   
    43    23    24 1   
    44    23    42 1   
    45    23    43 1   
    46    24    25 1   
    47    24    44 1   
    48    24    45 1   
    49    25    26 1   
    50    25    28 2   
    51    26    27 1   
    52    26    46 1   
    53    29    47 1   
    54    30    48 1   
    55    49    52 1   
    56    49    53 1   
@<TRIPOS>SUBSTRUCTURE
     1 77S         1 TEMP              0 ****  ****    0 ROOT
