@<TRIPOS>MOLECULE
77S
   53    56     1     0     0
SMALL
abcg2


@<TRIPOS>ATOM
      1 C4          -2.9110    -0.4550    -0.1360 ca         1 77S      -0.078000
      2 C5          -2.5380    -1.7690    -0.4160 ca         1 77S      -0.169600
      3 C6          -3.4890    -2.7820    -0.4060 ca         1 77S       0.176100
      4 C7          -4.6250     1.2670     0.4330 cp         1 77S      -0.047000
      5 C8          -3.7850     2.1190     1.1510 ca         1 77S      -0.076000
      6 C10         -5.3740     3.8830     0.9760 ca         1 77S       0.175000
      7 C20          7.1050     2.0480     2.2880 ca         1 77S      -0.113000
      8 C21          6.8550     0.7730     1.7930 ca         1 77S      -0.098000
      9 C22          6.8940     0.5220     0.4260 ca         1 77S      -0.074300
     10 C24          7.4380     2.8460     0.0500 ca         1 77S      -0.113000
     11 C26          5.3110    -0.9050    -0.8460 cc         1 77S       0.537300
     12 C16         -1.1210    -2.0780    -0.7840 c          1 77S       0.624700
     13 C3          -4.2300    -0.1260     0.1490 cp         1 77S      -0.038000
     14 C12         -5.8510     1.7690    -0.0070 ca         1 77S      -0.076000
     15 C11         -6.2350     3.0740     0.2610 ca         1 77S      -0.150000
     16 F13         -5.7380     5.1480     1.2430 f          1 77S      -0.177000
     17 C9          -4.1500     3.4290     1.4260 ca         1 77S      -0.150000
     18 C2          -5.1800    -1.1510     0.1610 ca         1 77S      -0.135000
     19 O15         -3.1190    -4.0500    -0.6490 oh         1 77S      -0.507100
     20 C1          -4.8200    -2.4580    -0.1080 ca         1 77S       0.038100
     21 O14         -5.6840    -3.4940    -0.0920 oh         1 77S      -0.555100
     22 N17         -0.2070    -1.6080     0.0820 ns         1 77S      -0.510900
     23 C32          1.2150    -1.7440    -0.1230 c3         1 77S       0.111000
     24 C31          1.7680    -0.7100    -1.1090 c3         1 77S      -0.129700
     25 C29          3.2460    -0.8200    -1.2210 cd         1 77S       0.426800
     26 N28          3.9040    -1.0690    -2.3550 na         1 77S      -0.188700
     27 N27          5.2220    -1.1250    -2.1380 nd         1 77S      -0.533800
     28 N30          4.1170    -0.7110    -0.2390 nc         1 77S      -0.705000
     29 C23          7.1880     1.5730    -0.4400 ca         1 77S      -0.098000
     30 C19          7.3970     3.0880     1.4180 ca         1 77S      -0.110000
     31 H1          -2.1620     0.3250    -0.1900 ha         1 77S       0.123000
     32 H2          -2.8370     1.7570     1.5260 ha         1 77S       0.117500
     33 H4           6.6320    -0.0350     2.4800 ha         1 77S       0.113500
     34 H5           7.6670     3.6520    -0.6370 ha         1 77S       0.110000
     35 H6          -6.5170     1.1410    -0.5860 ha         1 77S       0.117500
     36 H7          -7.1840     3.4550    -0.0920 ha         1 77S       0.134000
     37 H8          -3.4960     4.0780     1.9920 ha         1 77S       0.134000
     38 H9          -6.2130    -0.9320     0.4060 ha         1 77S       0.118000
     39 H10         -3.8720    -4.6460    -0.5490 ho         1 77S       0.486000
     40 H11         -6.5710    -3.2050     0.1490 ho         1 77S       0.479000
     41 H12         -0.5210    -1.1470     0.9190 hn         1 77S       0.319500
     42 H13          1.6970    -1.6230     0.8450 h1         1 77S       0.067200
     43 H14          1.4410    -2.7510    -0.4760 h1         1 77S       0.067200
     44 H15          1.3120    -0.8470    -2.0900 hc         1 77S       0.068700
     45 H16          1.5090     0.2930    -0.7650 hc         1 77S       0.068700
     46 H17          3.5280    -1.2050    -3.2820 hn         1 77S       0.380000
     47 H20          7.2200     1.3930    -1.5090 ha         1 77S       0.113500
     48 H21          7.5950     4.0810     1.8010 ha         1 77S       0.110000
     49 C25          6.6120    -0.8550    -0.1210 c3         1 77S      -0.048400
     50 O18         -0.8290    -2.6960    -1.7960 o          1 77S      -0.579100
     51 H3           7.0730     2.2250     3.3560 ha         1 77S       0.110000
     52 H18          7.4050    -1.1580    -0.8080 hc         1 77S       0.066700
     53 H19          6.5990    -1.5800     0.6950 hc         1 77S       0.066700
@<TRIPOS>BOND
     1     1     2 ar  
     2     1    13 ar  
     3     1    31 1   
     4     2     3 ar  
     5     2    12 1   
     6     3    19 1   
     7     3    20 ar  
     8     4     5 ar  
     9     4    13 1   
    10     4    14 ar  
    11     5    17 ar  
    12     5    32 1   
    13     6    15 ar  
    14     6    16 1   
    15     6    17 ar  
    16     7     8 ar  
    17     7    30 ar  
    18     7    51 1   
    19     8     9 ar  
    20     8    33 1   
    21     9    29 ar  
    22     9    49 1   
    23    10    29 ar  
    24    10    30 ar  
    25    10    34 1   
    26    11    27 2   
    27    11    28 1   
    28    11    49 1   
    29    12    22 1   
    30    12    50 2   
    31    13    18 ar  
    32    14    15 ar  
    33    14    35 1   
    34    15    36 1   
    35    17    37 1   
    36    18    20 ar  
    37    18    38 1   
    38    19    39 1   
    39    20    21 1   
    40    21    40 1   
    41    22    23 1   
    42    22    41 1   
    43    23    24 1   
    44    23    42 1   
    45    23    43 1   
    46    24    25 1   
    47    24    44 1   
    48    24    45 1   
    49    25    26 1   
    50    25    28 2   
    51    26    27 1   
    52    26    46 1   
    53    29    47 1   
    54    30    48 1   
    55    49    52 1   
    56    49    53 1   
@<TRIPOS>SUBSTRUCTURE
     1 77S         1 TEMP              0 ****  ****    0 ROOT
