@<TRIPOS>MOLECULE
77T
   35    36     1     0     0
SMALL
No Charge or Current Charge


@<TRIPOS>ATOM
      1 C5          -1.8790    -0.1100     1.4890 c5         1 77T       0.177800
      2 C6          -3.3470    -0.3580     1.0540 c5         1 77T      -0.112400
      3 C7          -3.4600     0.4760    -0.2550 c5         1 77T       0.178000
      4 C8          -3.5690     2.0030    -0.0040 c3         1 77T      -0.120100
      5 C10          0.2140     0.1560     0.0780 ca         1 77T       0.293000
      6 C13          2.9740     0.7110    -0.1390 ca         1 77T      -0.068000
      7 C1          -2.1350    -1.2510    -1.7810 c3         1 77T      -0.076100
      8 C2          -2.1080     0.0660    -0.9670 c5         1 77T       0.206500
      9 N4          -1.1740    -0.0660     0.1850 nh         1 77T      -0.771400
     10 O9          -4.6280     0.1040    -0.9920 oh         1 77T      -0.644000
     11 C11          0.6590     1.4090    -0.3770 ca         1 77T      -0.168000
     12 C12          2.0290     1.6900    -0.4890 ca         1 77T      -0.044000
     13 C14          4.3760     1.0030    -0.2480 cg         1 77T       0.331000
     14 N15          5.5120     1.2520    -0.3410 n1         1 77T      -0.442000
     15 C16          2.5350    -0.5480     0.3150 ca         1 77T       0.207000
     16 F17          3.4490    -1.4900     0.6560 f          1 77T      -0.163000
     17 C18          1.1570    -0.8430     0.4220 ca         1 77T      -0.096300
     18 C19          0.7090    -2.2300     0.9000 c3         1 77T      -0.045800
     19 H1          -1.7730     0.8430     2.0250 h1         1 77T       0.041700
     20 H2          -1.5130    -0.9150     2.1410 h1         1 77T       0.041700
     21 H3          -3.5220    -1.4240     0.8710 hc         1 77T       0.057700
     22 H4          -4.0610    -0.0450     1.8240 hc         1 77T       0.057700
     23 H5          -2.6900     2.3960     0.5200 hc         1 77T       0.043367
     24 H6          -3.6500     2.5520    -0.9500 hc         1 77T       0.043367
     25 H7          -4.4500     2.2480     0.6010 hc         1 77T       0.043367
     26 H8          -2.8200    -1.1720    -2.6330 hc         1 77T       0.046033
     27 H9          -1.1400    -1.4800    -2.1800 hc         1 77T       0.046033
     28 H10         -2.4540    -2.1020    -1.1690 hc         1 77T       0.046033
     29 H11         -1.7850     0.8690    -1.6440 h1         1 77T       0.024700
     30 H12         -5.3970     0.3040    -0.4180 ho         1 77T       0.441000
     31 H13         -0.0650     2.1760    -0.6350 ha         1 77T       0.122000
     32 H14          2.3520     2.6690    -0.8400 ha         1 77T       0.129000
     33 H15          1.4340    -3.0080     0.6390 hc         1 77T       0.057700
     34 H16          0.5830    -2.2450     1.9890 hc         1 77T       0.057700
     35 H17         -0.2430    -2.5310     0.4490 hc         1 77T       0.057700
@<TRIPOS>BOND
     1     1     2 1   
     2     1     9 1   
     3     1    19 1   
     4     1    20 1   
     5     2     3 1   
     6     2    21 1   
     7     2    22 1   
     8     3     4 1   
     9     3     8 1   
    10     3    10 1   
    11     4    23 1   
    12     4    24 1   
    13     4    25 1   
    14     5     9 1   
    15     5    11 ar  
    16     5    17 ar  
    17     6    12 ar  
    18     6    13 1   
    19     6    15 ar  
    20     7     8 1   
    21     7    26 1   
    22     7    27 1   
    23     7    28 1   
    24     8     9 1   
    25     8    29 1   
    26    10    30 1   
    27    11    12 ar  
    28    11    31 1   
    29    12    32 1   
    30    13    14 3   
    31    15    16 1   
    32    15    17 ar  
    33    17    18 1   
    34    18    33 1   
    35    18    34 1   
    36    18    35 1   
@<TRIPOS>SUBSTRUCTURE
     1 77T         1 TEMP              0 ****  ****    0 ROOT
