@<TRIPOS>MOLECULE
77T
   35    36     1     0     0
SMALL
bcc


@<TRIPOS>ATOM
      1 C5          -1.7270     0.7620     1.6570 c5         1 77T       0.177800
      2 C6          -3.2010     0.4090     1.5230 c5         1 77T      -0.112400
      3 C7          -3.4180     0.1690     0.0080 c5         1 77T       0.154800
      4 C8          -4.3250     1.2180    -0.6200 c3         1 77T      -0.120100
      5 C10          0.2550     0.1350     0.3660 ca         1 77T       0.154600
      6 C13          2.9940     0.4050    -0.0920 ca         1 77T      -0.068000
      7 C1          -1.7260    -0.6190    -1.7870 c3         1 77T      -0.076100
      8 C2          -1.9910     0.2590    -0.5820 c5         1 77T       0.206500
      9 N4          -1.1310    -0.0070     0.5770 nh         1 77T      -0.633000
     10 O9          -3.9190    -1.1290    -0.2460 oh         1 77T      -0.581800
     11 C11          0.8700     1.3910     0.4070 ca         1 77T      -0.186000
     12 C12          2.2230     1.5340     0.1850 ca         1 77T      -0.062000
     13 C14          4.3910     0.5030    -0.3360 cg         1 77T       0.241800
     14 N15          5.5230     0.5940    -0.5320 n1         1 77T      -0.352800
     15 C16          2.3700    -0.8340    -0.1220 ca         1 77T       0.171900
     16 F17          3.1310    -1.9030    -0.3740 f          1 77T      -0.127900
     17 C18          1.0180    -1.0160     0.1090 ca         1 77T      -0.096300
     18 C19          0.4350    -2.3950     0.1070 c3         1 77T      -0.045800
     19 H1          -1.5910     1.8470     1.5360 h1         1 77T       0.041700
     20 H2          -1.2990     0.4790     2.6200 h1         1 77T       0.041700
     21 H3          -3.4160    -0.5110     2.0690 hc         1 77T       0.057700
     22 H4          -3.8460     1.1920     1.9240 hc         1 77T       0.057700
     23 H5          -3.9830     2.2260    -0.3840 hc         1 77T       0.043367
     24 H6          -4.3510     1.1190    -1.7080 hc         1 77T       0.043367
     25 H7          -5.3490     1.1240    -0.2510 hc         1 77T       0.043367
     26 H8          -2.4230    -0.3650    -2.5870 hc         1 77T       0.046033
     27 H9          -0.7210    -0.4520    -2.1760 hc         1 77T       0.046033
     28 H10         -1.8370    -1.6770    -1.5630 hc         1 77T       0.046033
     29 H11         -1.8400     1.3070    -0.8980 h1         1 77T       0.024700
     30 H12         -4.8020    -1.1860     0.1350 ho         1 77T       0.402000
     31 H13          0.2800     2.2750     0.6080 ha         1 77T       0.140000
     32 H14          2.6870     2.5100     0.2120 ha         1 77T       0.147000
     33 H15          0.3700    -2.7990    -0.9050 hc         1 77T       0.057700
     34 H16          1.0390    -3.0840     0.6960 hc         1 77T       0.057700
     35 H17         -0.5690    -2.3700     0.5210 hc         1 77T       0.057700
@<TRIPOS>BOND
     1     1     2 1   
     2     1     9 1   
     3     1    19 1   
     4     1    20 1   
     5     2     3 1   
     6     2    21 1   
     7     2    22 1   
     8     3     4 1   
     9     3     8 1   
    10     3    10 1   
    11     4    23 1   
    12     4    24 1   
    13     4    25 1   
    14     5     9 1   
    15     5    11 ar  
    16     5    17 ar  
    17     6    12 ar  
    18     6    13 1   
    19     6    15 ar  
    20     7     8 1   
    21     7    26 1   
    22     7    27 1   
    23     7    28 1   
    24     8     9 1   
    25     8    29 1   
    26    10    30 1   
    27    11    12 ar  
    28    11    31 1   
    29    12    32 1   
    30    13    14 3   
    31    15    16 1   
    32    15    17 ar  
    33    17    18 1   
    34    18    33 1   
    35    18    34 1   
    36    18    35 1   
@<TRIPOS>SUBSTRUCTURE
     1 77T         1 TEMP              0 ****  ****    0 ROOT
