@<TRIPOS>MOLECULE
77W
   51    54     1     0     0
SMALL
No Charge or Current Charge


@<TRIPOS>ATOM
      1 C1          -2.9830     3.5090    -0.6480 ca         1 77W      -0.206000
      2 C2          -3.8980     3.5040     0.4130 ca         1 77W       0.134100
      3 C3          -4.1170     2.3280     1.1420 ca         1 77W      -0.154000
      4 C12         -2.1800    -0.5580    -2.0670 c3         1 77W      -0.111100
      5 C13         -0.1790     0.2070    -0.6040 ca         1 77W      -0.124300
      6 C14         -1.1900    -2.4830     0.1750 ca         1 77W       0.248000
      7 C15          0.0730    -2.5820     0.7910 ca         1 77W      -0.097000
      8 C16          0.8310    -3.7640     0.6890 ca         1 77W      -0.145500
      9 C17          0.3220    -4.8580    -0.0260 ca         1 77W       0.150000
     10 C18         -0.9410    -4.7810    -0.6320 ca         1 77W      -0.145500
     11 C19         -1.6960    -3.5970    -0.5280 ca         1 77W      -0.097000
     12 C20          0.3390     0.8900     0.5190 ca         1 77W      -0.095500
     13 C21          1.7020     1.2170     0.6060 ca         1 77W      -0.133000
     14 C22          2.5890     0.8650    -0.4290 ca         1 77W       0.011200
     15 C23          2.0840     0.1780    -1.5480 ca         1 77W      -0.133000
     16 C24          0.7200    -0.1500    -1.6380 ca         1 77W      -0.095500
     17 C25          4.0420     1.1950    -0.3670 ce         1 77W      -0.246200
     18 C26          4.7430     1.8540     0.6090 cf         1 77W      -0.207200
     19 C28          6.2100     2.1410     0.5820 c          1 77W       0.694200
     20 C4          -3.4260     1.1460     0.8130 ca         1 77W      -0.031300
     21 C5          -2.4970     1.1390    -0.2550 ca         1 77W      -0.099300
     22 C6          -2.2850     2.3350    -0.9780 ca         1 77W      -0.051000
     23 C7          -3.6760    -0.1200     1.6220 c6         1 77W      -0.034100
     24 C8          -3.3340    -1.3810     0.8140 c6         1 77W       0.193800
     25 N9          -1.9530    -1.2970     0.2850 nh         1 77W      -0.780400
     26 C10         -1.6960    -0.1400    -0.6400 c6         1 77W       0.332800
     27 O11         -4.5740     4.6400     0.7390 oh         1 77W      -0.541100
     28 F27          1.0470    -5.9930    -0.1250 f          1 77W      -0.188000
     29 O29          6.6840     2.7410     1.5330 o          1 77W      -0.721500
     30 O30          6.8700     1.7690    -0.3770 o          1 77W      -0.721500
     31 H1          -2.8030     4.4170    -1.2180 ha         1 77W       0.111000
     32 H2          -4.8260     2.3330     1.9660 ha         1 77W       0.120000
     33 H3          -1.7270    -1.4980    -2.4020 hc         1 77W       0.039700
     34 H4          -3.2660    -0.6970    -2.0920 hc         1 77W       0.039700
     35 H5          -1.9370     0.2050    -2.8150 hc         1 77W       0.039700
     36 H6           0.4650    -1.7400     1.3540 ha         1 77W       0.127500
     37 H7           1.8070    -3.8310     1.1630 ha         1 77W       0.129000
     38 H8          -1.3330    -5.6340    -1.1800 ha         1 77W       0.129000
     39 H9          -2.6730    -3.5390    -1.0000 ha         1 77W       0.127500
     40 H10         -0.3210     1.1630     1.3390 ha         1 77W       0.103500
     41 H11          2.0590     1.7410     1.4860 ha         1 77W       0.116000
     42 H12          2.7520    -0.1100    -2.3560 ha         1 77W       0.116000
     43 H13          0.3830    -0.6910    -2.5170 ha         1 77W       0.103500
     44 H14          4.6050     0.8510    -1.2370 ha         1 77W       0.191000
     45 H15          4.2230     2.2150     1.4920 ha         1 77W       0.144000
     46 H16         -1.5690     2.3570    -1.7970 ha         1 77W       0.124000
     47 H17         -3.0660    -0.0940     2.5350 hc         1 77W       0.055200
     48 H18         -4.7240    -0.1690     1.9450 hc         1 77W       0.055200
     49 H19         -3.4410    -2.2600     1.4670 h1         1 77W       0.032200
     50 H20         -4.0530    -1.4950    -0.0100 h1         1 77W       0.032200
     51 H21         -4.2910     5.3530     0.1260 ho         1 77W       0.461000
@<TRIPOS>BOND
     1     1     2 ar  
     2     1    22 ar  
     3     1    31 1   
     4     2     3 ar  
     5     2    27 1   
     6     3    20 ar  
     7     3    32 1   
     8     4    26 1   
     9     4    33 1   
    10     4    34 1   
    11     4    35 1   
    12     5    12 ar  
    13     5    16 ar  
    14     5    26 1   
    15     6     7 ar  
    16     6    11 ar  
    17     6    25 1   
    18     7     8 ar  
    19     7    36 1   
    20     8     9 ar  
    21     8    37 1   
    22     9    10 ar  
    23     9    28 1   
    24    10    11 ar  
    25    10    38 1   
    26    11    39 1   
    27    12    13 ar  
    28    12    40 1   
    29    13    14 ar  
    30    13    41 1   
    31    14    15 ar  
    32    14    17 1   
    33    15    16 ar  
    34    15    42 1   
    35    16    43 1   
    36    17    18 2   
    37    17    44 1   
    38    18    19 1   
    39    18    45 1   
    40    19    29 1   
    41    19    30 1   
    42    20    21 ar  
    43    20    23 1   
    44    21    22 ar  
    45    21    26 1   
    46    22    46 1   
    47    23    24 1   
    48    23    47 1   
    49    23    48 1   
    50    24    25 1   
    51    24    49 1   
    52    24    50 1   
    53    25    26 1   
    54    27    51 1   
@<TRIPOS>SUBSTRUCTURE
     1 77W         1 TEMP              0 ****  ****    0 ROOT
