@<TRIPOS>MOLECULE
77W
   51    54     1     0     0
SMALL
abcg2


@<TRIPOS>ATOM
      1 C1          -2.9480     3.3950    -0.7910 ca         1 77W      -0.206000
      2 C2          -3.8650     3.4460     0.2590 ca         1 77W       0.134100
      3 C3          -4.0600     2.3180     1.0410 ca         1 77W      -0.154000
      4 C12         -2.0720    -0.6680    -1.9750 c3         1 77W      -0.111100
      5 C13         -0.1530     0.2260    -0.5620 ca         1 77W      -0.124300
      6 C14         -1.1770    -2.4370     0.2130 ca         1 77W       0.248000
      7 C15          0.1680    -2.5840     0.5570 ca         1 77W      -0.097000
      8 C16          0.8360    -3.7810     0.3520 ca         1 77W      -0.145500
      9 C17          0.1420    -4.8490    -0.1830 ca         1 77W       0.150000
     10 C18         -1.1930    -4.7540    -0.5150 ca         1 77W      -0.145500
     11 C19         -1.8420    -3.5420    -0.3230 ca         1 77W      -0.097000
     12 C20          0.3630     0.7980     0.6050 ca         1 77W      -0.095500
     13 C21          1.6920     1.1490     0.7070 ca         1 77W      -0.133000
     14 C22          2.5750     0.9430    -0.3630 ca         1 77W       0.011200
     15 C23          2.0550     0.3820    -1.5250 ca         1 77W      -0.133000
     16 C24          0.7130     0.0290    -1.6250 ca         1 77W      -0.095500
     17 C25          3.9960     1.2860    -0.3140 ce         1 77W      -0.246200
     18 C26          4.6570     1.8510     0.7000 cf         1 77W      -0.207200
     19 C28          6.1370     2.1540     0.6540 c          1 77W       0.694200
     20 C4          -3.3570     1.1410     0.7920 ca         1 77W      -0.031300
     21 C5          -2.4390     1.0820    -0.2540 ca         1 77W      -0.099300
     22 C6          -2.2530     2.2250    -1.0300 ca         1 77W      -0.051000
     23 C7          -3.5960    -0.0660     1.6490 c6         1 77W      -0.034100
     24 C8          -3.2110    -1.3250     0.9050 c6         1 77W       0.193800
     25 N9          -1.8370    -1.2030     0.4460 nh         1 77W      -0.780400
     26 C10         -1.6280    -0.1700    -0.5920 c6         1 77W       0.332800
     27 O11         -4.5800     4.5530     0.5480 oh         1 77W      -0.541100
     28 F27          0.7840    -6.0160    -0.3740 f          1 77W      -0.188000
     29 O29          6.6140     2.6550     1.6930 o          1 77W      -0.721500
     30 O30          6.7560     1.8850    -0.3960 o          1 77W      -0.721500
     31 H1          -2.7760     4.2640    -1.4160 ha         1 77W       0.111000
     32 H2          -4.7770     2.3500     1.8540 ha         1 77W       0.120000
     33 H3          -1.5180    -1.5530    -2.2880 hc         1 77W       0.039700
     34 H4          -3.1310    -0.9280    -1.9580 hc         1 77W       0.039700
     35 H5          -1.9390     0.0970    -2.7390 hc         1 77W       0.039700
     36 H6           0.6980    -1.7580     1.0070 ha         1 77W       0.127500
     37 H7           1.8780    -3.8850     0.6250 ha         1 77W       0.129000
     38 H8          -1.7210    -5.6040    -0.9270 ha         1 77W       0.129000
     39 H9          -2.8850    -3.4660    -0.6000 ha         1 77W       0.127500
     40 H10         -0.2920     0.9540     1.4530 ha         1 77W       0.103500
     41 H11          2.0490     1.5810     1.6340 ha         1 77W       0.116000
     42 H12          2.7110     0.2120    -2.3710 ha         1 77W       0.116000
     43 H13          0.3640    -0.4050    -2.5510 ha         1 77W       0.103500
     44 H14          4.5610     1.0450    -1.2100 ha         1 77W       0.191000
     45 H15          4.1390     2.1180     1.6170 ha         1 77W       0.144000
     46 H16         -1.5340     2.2150    -1.8410 ha         1 77W       0.124000
     47 H17         -3.0060     0.0050     2.5680 hc         1 77W       0.055200
     48 H18         -4.6440    -0.1140     1.9500 hc         1 77W       0.055200
     49 H19         -3.2710    -2.1810     1.5780 h1         1 77W       0.032200
     50 H20         -3.9340    -1.5080     0.0960 h1         1 77W       0.032200
     51 H21         -4.3560     5.2650    -0.0610 ho         1 77W       0.461000
@<TRIPOS>BOND
     1     1     2 ar  
     2     1    22 ar  
     3     1    31 1   
     4     2     3 ar  
     5     2    27 1   
     6     3    20 ar  
     7     3    32 1   
     8     4    26 1   
     9     4    33 1   
    10     4    34 1   
    11     4    35 1   
    12     5    12 ar  
    13     5    16 ar  
    14     5    26 1   
    15     6     7 ar  
    16     6    11 ar  
    17     6    25 1   
    18     7     8 ar  
    19     7    36 1   
    20     8     9 ar  
    21     8    37 1   
    22     9    10 ar  
    23     9    28 1   
    24    10    11 ar  
    25    10    38 1   
    26    11    39 1   
    27    12    13 ar  
    28    12    40 1   
    29    13    14 ar  
    30    13    41 1   
    31    14    15 ar  
    32    14    17 1   
    33    15    16 ar  
    34    15    42 1   
    35    16    43 1   
    36    17    18 2   
    37    17    44 1   
    38    18    19 1   
    39    18    45 1   
    40    19    29 1   
    41    19    30 1   
    42    20    21 ar  
    43    20    23 1   
    44    21    22 ar  
    45    21    26 1   
    46    22    46 1   
    47    23    24 1   
    48    23    47 1   
    49    23    48 1   
    50    24    25 1   
    51    24    49 1   
    52    24    50 1   
    53    25    26 1   
    54    27    51 1   
@<TRIPOS>SUBSTRUCTURE
     1 77W         1 TEMP              0 ****  ****    0 ROOT
