@<TRIPOS>MOLECULE
77X
   36    38     1     0     0
SMALL
No Charge or Current Charge


@<TRIPOS>ATOM
      1 CAS          5.4490     2.0860     0.5680 c3         1 77X      -0.077100
      2 CAR          4.5730     0.8900     0.1290 c3         1 77X      -0.153400
      3 CAP          3.0600     1.1720     0.0050 c          1 77X       0.605100
      4 OAQ          2.6250     2.3110     0.1190 o          1 77X      -0.597100
      5 NAH          2.1740     0.0870    -0.1900 n          1 77X      -0.417800
      6 CAG          2.6180    -1.2250    -0.7670 c6         1 77X       0.108000
      7 CAF          1.8640    -2.4390    -0.1690 c6         1 77X      -0.034100
      8 CAI          0.7030     0.3510    -0.2820 c6         1 77X       0.177300
      9 CAD         -0.1360    -0.8980    -0.1480 cc         1 77X      -0.205300
     10 CAC          0.3930    -2.1430    -0.0970 cd         1 77X      -0.151300
     11 NAB         -0.6890    -3.0000     0.0670 na         1 77X       0.009800
     12 NAA         -1.8940    -2.3050     0.1210 nd         1 77X      -0.512800
     13 CAE         -1.5480    -1.0280    -0.0070 cc         1 77X       0.325500
     14 CAJ         -2.5970     0.0310    -0.0170 ca         1 77X      -0.119500
     15 CAK         -3.9400    -0.3220     0.2820 ca         1 77X      -0.089500
     16 CAL         -4.9690     0.6350     0.2770 ca         1 77X      -0.116000
     17 CAM         -4.6880     1.9700    -0.0370 ca         1 77X      -0.105000
     18 CAN         -3.3760     2.3420    -0.3520 ca         1 77X      -0.116000
     19 CAO         -2.3430     1.3870    -0.3470 ca         1 77X      -0.089500
     20 H1           5.1370     2.4540     1.5530 hc         1 77X       0.042700
     21 H2           6.5020     1.7860     0.6330 hc         1 77X       0.042700
     22 H3           5.3720     2.9100    -0.1510 hc         1 77X       0.042700
     23 H4           4.9190     0.4860    -0.8290 hc         1 77X       0.053700
     24 H5           4.7090     0.0300     0.7950 hc         1 77X       0.053700
     25 H6           2.4350    -1.1980    -1.8510 h1         1 77X       0.055700
     26 H7           3.6930    -1.3900    -0.6310 h1         1 77X       0.055700
     27 H8           2.0620    -3.3360    -0.7720 hc         1 77X       0.059700
     28 H9           2.2510    -2.6440     0.8390 hc         1 77X       0.059700
     29 H10          0.4260     1.0620     0.5110 h1         1 77X       0.070700
     30 H11          0.5080     0.8330    -1.2500 h1         1 77X       0.070700
     31 H12         -0.6520    -4.0160     0.1480 hn         1 77X       0.372000
     32 H13         -4.2020    -1.3470     0.5340 ha         1 77X       0.120500
     33 H14         -5.9880     0.3370     0.5180 ha         1 77X       0.113000
     34 H15         -5.4850     2.7110    -0.0420 ha         1 77X       0.112000
     35 H16         -3.1540     3.3760    -0.6090 ha         1 77X       0.113000
     36 H17         -1.3600     1.7360    -0.6250 ha         1 77X       0.120500
@<TRIPOS>BOND
     1     1     2 1   
     2     1    20 1   
     3     1    21 1   
     4     1    22 1   
     5     2     3 1   
     6     2    23 1   
     7     2    24 1   
     8     3     4 2   
     9     3     5 1   
    10     5     6 1   
    11     5     8 1   
    12     6     7 1   
    13     6    25 1   
    14     6    26 1   
    15     7    10 1   
    16     7    27 1   
    17     7    28 1   
    18     8     9 1   
    19     8    29 1   
    20     8    30 1   
    21     9    10 2   
    22     9    13 1   
    23    10    11 1   
    24    11    12 1   
    25    11    31 1   
    26    12    13 2   
    27    13    14 1   
    28    14    15 ar  
    29    14    19 ar  
    30    15    16 ar  
    31    15    32 1   
    32    16    17 ar  
    33    16    33 1   
    34    17    18 ar  
    35    17    34 1   
    36    18    19 ar  
    37    18    35 1   
    38    19    36 1   
@<TRIPOS>SUBSTRUCTURE
     1 77X         1 TEMP              0 ****  ****    0 ROOT
