@<TRIPOS>MOLECULE
77X
   36    38     1     0     0
SMALL
abcg2


@<TRIPOS>ATOM
      1 CAS          5.2950     1.6710     0.7650 c3         1 77X      -0.077100
      2 CAR          4.4380     0.6470     0.0420 c3         1 77X      -0.153400
      3 CAP          2.9940     1.0870    -0.1110 c          1 77X       0.605100
      4 OAQ          2.6300     2.1920     0.2690 o          1 77X      -0.597100
      5 NAH          2.1340     0.2110    -0.6890 n          1 77X      -0.417800
      6 CAG          2.4940    -1.1290    -1.1190 c6         1 77X       0.108000
      7 CAF          1.9740    -2.1770    -0.1340 c6         1 77X      -0.034100
      8 CAI          0.7100     0.5080    -0.7380 c6         1 77X       0.177300
      9 CAD         -0.0500    -0.6370    -0.1410 cc         1 77X      -0.205300
     10 CAC          0.5500    -1.8450     0.1270 cd         1 77X      -0.151300
     11 NAB         -0.4130    -2.6500     0.6050 na         1 77X       0.009800
     12 NAA         -1.5990    -2.0600     0.6620 nd         1 77X      -0.512800
     13 CAE         -1.4090    -0.8290     0.2060 cc         1 77X       0.325500
     14 CAJ         -2.5460     0.0930     0.0980 ca         1 77X      -0.119500
     15 CAK         -3.8350    -0.4060    -0.1070 ca         1 77X      -0.089500
     16 CAL         -4.9200     0.4510    -0.2010 ca         1 77X      -0.116000
     17 CAM         -4.7410     1.8250    -0.0950 ca         1 77X      -0.105000
     18 CAN         -3.4650     2.3320     0.1110 ca         1 77X      -0.116000
     19 CAO         -2.3790     1.4740     0.2090 ca         1 77X      -0.089500
     20 H1           4.9140     1.8870     1.7630 hc         1 77X       0.042700
     21 H2           6.3100     1.2880     0.8740 hc         1 77X       0.042700
     22 H3           5.3520     2.6100     0.2170 hc         1 77X       0.042700
     23 H4           4.8600     0.4430    -0.9460 hc         1 77X       0.053700
     24 H5           4.4680    -0.3060     0.5790 hc         1 77X       0.053700
     25 H6           2.0460    -1.3030    -2.1010 h1         1 77X       0.055700
     26 H7           3.5670    -1.2210    -1.2460 h1         1 77X       0.055700
     27 H8           2.0820    -3.1760    -0.5600 hc         1 77X       0.059700
     28 H9           2.5610    -2.1570     0.7880 hc         1 77X       0.059700
     29 H10          0.5380     1.4370    -0.2010 h1         1 77X       0.070700
     30 H11          0.4010     0.6800    -1.7750 h1         1 77X       0.070700
     31 H12         -0.3150    -3.6040     0.9150 hn         1 77X       0.372000
     32 H13         -3.9850    -1.4730    -0.2030 ha         1 77X       0.120500
     33 H14         -5.9100     0.0450    -0.3660 ha         1 77X       0.113000
     34 H15         -5.5870     2.4950    -0.1720 ha         1 77X       0.112000
     35 H16         -3.3120     3.3990     0.2020 ha         1 77X       0.113000
     36 H17         -1.3990     1.8910     0.3960 ha         1 77X       0.120500
@<TRIPOS>BOND
     1     1     2 1   
     2     1    20 1   
     3     1    21 1   
     4     1    22 1   
     5     2     3 1   
     6     2    23 1   
     7     2    24 1   
     8     3     4 2   
     9     3     5 1   
    10     5     6 1   
    11     5     8 1   
    12     6     7 1   
    13     6    25 1   
    14     6    26 1   
    15     7    10 1   
    16     7    27 1   
    17     7    28 1   
    18     8     9 1   
    19     8    29 1   
    20     8    30 1   
    21     9    10 2   
    22     9    13 1   
    23    10    11 1   
    24    11    12 1   
    25    11    31 1   
    26    12    13 2   
    27    13    14 1   
    28    14    15 ar  
    29    14    19 ar  
    30    15    16 ar  
    31    15    32 1   
    32    16    17 ar  
    33    16    33 1   
    34    17    18 ar  
    35    17    34 1   
    36    18    19 ar  
    37    18    35 1   
    38    19    36 1   
@<TRIPOS>SUBSTRUCTURE
     1 77X         1 TEMP              0 ****  ****    0 ROOT
