@<TRIPOS>MOLECULE
77Z
   60    63     1     0     0
SMALL
No Charge or Current Charge


@<TRIPOS>ATOM
      1 O55          7.8940     0.1860    -0.8050 o          1 77Z      -0.560100
      2 C51          7.4060     1.2840    -0.5820 c          1 77Z       0.606100
      3 N54          8.1690     2.3960    -0.7060 nt         1 77Z      -0.617000
      4 C50          5.9360     1.5170    -0.1560 c3         1 77Z       0.072600
      5 O49          5.1940     0.2790    -0.0490 os         1 77Z      -0.305100
      6 C19          3.8630     0.2480     0.3180 ca         1 77Z       0.081100
      7 C18          3.1270     1.4180     0.6190 ca         1 77Z      -0.100000
      8 C20          3.2270    -1.0060     0.3940 ca         1 77Z       0.004000
      9 C14          1.8690    -1.0840     0.7640 ca         1 77Z      -0.347500
     10 S15          1.0420    -2.6400     0.9070 sy         1 77Z       1.158600
     11 O21          1.5510    -3.3170     2.1000 o          1 77Z      -0.516500
     12 O22          1.0250    -3.3190    -0.3910 o          1 77Z      -0.516500
     13 N16         -0.5340    -2.2350     1.2750 n7         1 77Z      -0.857300
     14 C13          1.1530     0.0620     1.0520 ca         1 77Z       0.379000
     15 C17          1.7710     1.3170     0.9860 ca         1 77Z      -0.155000
     16 N12         -0.1800    -0.0610     1.3800 nu         1 77Z      -1.016200
     17 C11         -1.0390    -1.0100     0.7580 c6         1 77Z       0.518700
     18 C9          -1.0510    -0.8870    -0.7710 c6         1 77Z      -0.268700
     19 C8          -1.6340     0.4490    -1.1580 c          1 77Z       0.576000
     20 O24         -0.9970     1.2310    -1.8510 o          1 77Z      -0.510000
     21 C10         -2.0150    -1.8980    -1.3290 c          1 77Z       0.602700
     22 O23         -1.7270    -2.6620    -2.2400 o          1 77Z      -0.462100
     23 C4          -3.4200    -1.7300    -0.8350 ca         1 77Z      -0.231600
     24 C5          -4.2500    -2.8470    -0.6250 ca         1 77Z      -0.020000
     25 C6          -5.5310    -2.6690    -0.0780 ca         1 77Z      -0.149000
     26 C3          -3.8890    -0.4210    -0.5780 ca         1 77Z       0.020000
     27 C2          -5.1450    -0.2680     0.0490 ca         1 77Z      -0.173000
     28 C1          -5.9700    -1.3830     0.2760 ca         1 77Z      -0.055000
     29 N7          -2.9750     0.6880    -0.7620 n          1 77Z      -0.226400
     30 C33         -3.5240     2.0590    -0.9180 c3         1 77Z       0.093000
     31 C34         -3.4320     2.8790     0.3900 c3         1 77Z      -0.093400
     32 C37         -4.1260     4.2650     0.3320 c3         1 77Z      -0.057700
     33 C44         -4.1250     4.9420     1.7210 c3         1 77Z      -0.089100
     34 C40         -3.5070     5.2010    -0.7340 c3         1 77Z      -0.089100
     35 HN54         9.1360     2.3020    -0.9820 hn         1 77Z       0.316500
     36 HN5A         7.7740     3.3070    -0.5240 hn         1 77Z       0.316500
     37 H50          5.9510     2.0420     0.8070 h1         1 77Z       0.045200
     38 H50A         5.4770     2.1790    -0.9000 h1         1 77Z       0.045200
     39 H18          3.5840     2.4020     0.5720 ha         1 77Z       0.115000
     40 H20          3.7930    -1.9080     0.1690 ha         1 77Z       0.150000
     41 HN16        -0.3970    -2.0170     2.2550 hn         1 77Z       0.487000
     42 H17          1.2030     2.2150     1.2100 ha         1 77Z       0.115000
     43 HN12        -0.6160     0.8030     1.7040 hn         1 77Z       0.507000
     44 H11         -2.0620    -0.8910     1.1560 h2         1 77Z       0.076700
     45 H9          -0.0740    -0.9980    -1.2450 hc         1 77Z       0.141700
     46 H5          -3.8950    -3.8500    -0.8550 ha         1 77Z       0.138000
     47 H6          -6.1710    -3.5300     0.0980 ha         1 77Z       0.125000
     48 H2          -5.5050     0.7110     0.3510 ha         1 77Z       0.123000
     49 H1          -6.9480    -1.2510     0.7330 ha         1 77Z       0.117000
     50 H33         -2.9930     2.5880    -1.7190 h1         1 77Z       0.068200
     51 H33A        -4.5720     1.9960    -1.2360 h1         1 77Z       0.068200
     52 H34         -3.8810     2.2930     1.2010 hc         1 77Z       0.044700
     53 H34A        -2.3740     3.0110     0.6520 hc         1 77Z       0.044700
     54 H37         -5.1760     4.1010     0.0550 hc         1 77Z       0.043700
     55 H44         -3.1000     5.1370     2.0600 hc         1 77Z       0.035367
     56 H44A        -4.6640     5.8960     1.6900 hc         1 77Z       0.035367
     57 H44B        -4.6160     4.3030     2.4650 hc         1 77Z       0.035367
     58 H40         -2.4370     5.3520    -0.5480 hc         1 77Z       0.035367
     59 H40A        -3.6280     4.7890    -1.7430 hc         1 77Z       0.035367
     60 H40B        -3.9990     6.1820    -0.7190 hc         1 77Z       0.035367
@<TRIPOS>BOND
     1     1     2 2   
     2     2     3 1   
     3     2     4 1   
     4     3    35 1   
     5     3    36 1   
     6     4     5 1   
     7     4    37 1   
     8     4    38 1   
     9     5     6 1   
    10     6     7 ar  
    11     6     8 ar  
    12     7    15 ar  
    13     7    39 1   
    14     8     9 ar  
    15     8    40 1   
    16     9    10 1   
    17     9    14 ar  
    18    10    11 2   
    19    10    12 2   
    20    10    13 1   
    21    13    17 1   
    22    13    41 1   
    23    14    15 ar  
    24    14    16 1   
    25    15    42 1   
    26    16    17 1   
    27    16    43 1   
    28    17    18 1   
    29    17    44 1   
    30    18    19 1   
    31    18    21 1   
    32    18    45 1   
    33    19    20 2   
    34    19    29 1   
    35    21    22 2   
    36    21    23 1   
    37    23    24 ar  
    38    23    26 ar  
    39    24    25 ar  
    40    24    46 1   
    41    25    28 ar  
    42    25    47 1   
    43    26    27 ar  
    44    26    29 1   
    45    27    28 ar  
    46    27    48 1   
    47    28    49 1   
    48    29    30 1   
    49    30    31 1   
    50    30    50 1   
    51    30    51 1   
    52    31    32 1   
    53    31    52 1   
    54    31    53 1   
    55    32    33 1   
    56    32    34 1   
    57    32    54 1   
    58    33    55 1   
    59    33    56 1   
    60    33    57 1   
    61    34    58 1   
    62    34    59 1   
    63    34    60 1   
@<TRIPOS>SUBSTRUCTURE
     1 77Z         1 TEMP              0 ****  ****    0 ROOT
