@<TRIPOS>MOLECULE
77Z
   60    63     1     0     0
SMALL
abcg2


@<TRIPOS>ATOM
      1 O55          8.1340    -0.0660     0.0580 o          1 77Z      -0.560100
      2 C51          7.7460     1.0850     0.1370 c          1 77Z       0.606100
      3 N54          8.5530     2.1530     0.1450 nt         1 77Z      -0.617000
      4 C50          6.2720     1.4410     0.2650 c3         1 77Z       0.072600
      5 O49          5.5290     0.2770     0.0330 os         1 77Z      -0.305100
      6 C19          4.1870     0.3330     0.1860 ca         1 77Z       0.081100
      7 C18          3.4700     1.4860     0.5180 ca         1 77Z      -0.100000
      8 C20          3.4930    -0.8500     0.0030 ca         1 77Z       0.004000
      9 C14          2.1100    -0.8750     0.1410 ca         1 77Z      -0.347500
     10 S15          1.2880    -2.4110    -0.0700 sy         1 77Z       1.158600
     11 O21          1.9520    -3.4490     0.6960 o          1 77Z      -0.516500
     12 O22          1.0690    -2.6360    -1.4880 o          1 77Z      -0.516500
     13 N16         -0.1750    -2.1320     0.6630 n7         1 77Z      -0.857300
     14 C13          1.3680     0.2690     0.4650 ca         1 77Z       0.379000
     15 C17          2.0960     1.4490     0.6520 ca         1 77Z      -0.155000
     16 N12          0.0090     0.2640     0.6300 nu         1 77Z      -1.016200
     17 C11         -0.8330    -0.8680     0.3830 c6         1 77Z       0.518700
     18 C9          -1.4340    -0.8690    -1.0620 c6         1 77Z      -0.268700
     19 C8          -2.0900     0.4740    -1.2850 c          1 77Z       0.576000
     20 O24         -1.4830     1.3770    -1.8220 o          1 77Z      -0.510000
     21 C10         -2.4010    -2.0210    -1.1590 c          1 77Z       0.602700
     22 O23         -2.1240    -3.0720    -1.6860 o          1 77Z      -0.462100
     23 C4          -3.6810    -1.7630    -0.4880 ca         1 77Z      -0.231600
     24 C5          -4.4650    -2.8280    -0.0480 ca         1 77Z      -0.020000
     25 C6          -5.6560    -2.6030     0.6130 ca         1 77Z      -0.149000
     26 C3          -4.1020    -0.4380    -0.2880 ca         1 77Z       0.020000
     27 C2          -5.3070    -0.2210     0.3820 ca         1 77Z      -0.173000
     28 C1          -6.0650    -1.2920     0.8270 ca         1 77Z      -0.055000
     29 N7          -3.3590     0.6320    -0.8010 n          1 77Z      -0.226400
     30 C33         -3.9550     1.9650    -0.9000 c3         1 77Z       0.093000
     31 C34         -3.6690     2.8220     0.3250 c3         1 77Z      -0.093400
     32 C37         -4.3320     4.1990     0.2680 c3         1 77Z      -0.057700
     33 C44         -4.1450     4.9220     1.5970 c3         1 77Z      -0.089100
     34 C40         -3.7950     5.0500    -0.8800 c3         1 77Z      -0.089100
     35 HN54         9.5520     2.0380     0.1160 hn         1 77Z       0.316500
     36 HN5A         8.1980     3.0930     0.2020 hn         1 77Z       0.316500
     37 H50          6.0970     1.8410     1.2720 h1         1 77Z       0.045200
     38 H50A         6.0190     2.2350    -0.4490 h1         1 77Z       0.045200
     39 H18          3.9680     2.4320     0.6760 ha         1 77Z       0.115000
     40 H20          4.0370    -1.7550    -0.2380 ha         1 77Z       0.150000
     41 HN16        -0.1140    -2.3170     1.6600 hn         1 77Z       0.487000
     42 H17          1.5690     2.3580     0.9110 ha         1 77Z       0.115000
     43 HN12        -0.3950     1.0360     1.1330 hn         1 77Z       0.507000
     44 H11         -1.6600    -0.8160     1.0920 h2         1 77Z       0.076700
     45 H9          -0.6400    -0.9700    -1.8000 hc         1 77Z       0.141700
     46 H5          -4.1170    -3.8380    -0.2200 ha         1 77Z       0.138000
     47 H6          -6.2570    -3.4320     0.9630 ha         1 77Z       0.125000
     48 H2          -5.6710     0.7770     0.5740 ha         1 77Z       0.123000
     49 H1          -6.9900    -1.0910     1.3510 ha         1 77Z       0.117000
     50 H33         -3.5610     2.4320    -1.7990 h1         1 77Z       0.068200
     51 H33A        -5.0270     1.8530    -1.0610 h1         1 77Z       0.068200
     52 H34         -4.0110     2.3010     1.2240 hc         1 77Z       0.044700
     53 H34A        -2.5860     2.9490     0.4340 hc         1 77Z       0.044700
     54 H37         -5.4070     4.0500     0.1100 hc         1 77Z       0.043700
     55 H44         -3.0860     5.0940     1.8020 hc         1 77Z       0.035367
     56 H44A        -4.6430     5.8940     1.5910 hc         1 77Z       0.035367
     57 H44B        -4.5550     4.3440     2.4280 hc         1 77Z       0.035367
     58 H40         -2.7120     5.1730    -0.7970 hc         1 77Z       0.035367
     59 H40A        -4.0060     4.6180    -1.8590 hc         1 77Z       0.035367
     60 H40B        -4.2420     6.0450    -0.8670 hc         1 77Z       0.035367
@<TRIPOS>BOND
     1     1     2 2   
     2     2     3 1   
     3     2     4 1   
     4     3    35 1   
     5     3    36 1   
     6     4     5 1   
     7     4    37 1   
     8     4    38 1   
     9     5     6 1   
    10     6     7 ar  
    11     6     8 ar  
    12     7    15 ar  
    13     7    39 1   
    14     8     9 ar  
    15     8    40 1   
    16     9    10 1   
    17     9    14 ar  
    18    10    11 2   
    19    10    12 2   
    20    10    13 1   
    21    13    17 1   
    22    13    41 1   
    23    14    15 ar  
    24    14    16 1   
    25    15    42 1   
    26    16    17 1   
    27    16    43 1   
    28    17    18 1   
    29    17    44 1   
    30    18    19 1   
    31    18    21 1   
    32    18    45 1   
    33    19    20 2   
    34    19    29 1   
    35    21    22 2   
    36    21    23 1   
    37    23    24 ar  
    38    23    26 ar  
    39    24    25 ar  
    40    24    46 1   
    41    25    28 ar  
    42    25    47 1   
    43    26    27 ar  
    44    26    29 1   
    45    27    28 ar  
    46    27    48 1   
    47    28    49 1   
    48    29    30 1   
    49    30    31 1   
    50    30    50 1   
    51    30    51 1   
    52    31    32 1   
    53    31    52 1   
    54    31    53 1   
    55    32    33 1   
    56    32    34 1   
    57    32    54 1   
    58    33    55 1   
    59    33    56 1   
    60    33    57 1   
    61    34    58 1   
    62    34    59 1   
    63    34    60 1   
@<TRIPOS>SUBSTRUCTURE
     1 77Z         1 TEMP              0 ****  ****    0 ROOT
