@<TRIPOS>MOLECULE
780
   41    44     1     0     0
SMALL
No Charge or Current Charge


@<TRIPOS>ATOM
      1 C1           4.9160     0.4660    -0.0150 ca         1 780      -0.298900
      2 C2           5.1000    -0.9430    -0.1170 ca         1 780      -0.104000
      3 C3           3.9950    -1.8190    -0.1740 ca         1 780      -0.103000
      4 C4           2.7150    -1.2610    -0.1270 ca         1 780      -0.004000
      5 C5           2.5140     0.1040    -0.0270 ca         1 780      -0.038000
      6 C6           3.5970     0.9920     0.0310 ca         1 780      -0.029000
      7 C7           6.0890     1.3800     0.0460 ce         1 780       0.531400
      8 N1           6.0030     2.6300    -0.4980 nv         1 780      -0.590200
      9 N2           7.2420     0.9590     0.6460 nv         1 780      -0.574300
     10 N3           1.4870    -1.8920    -0.1640 na         1 780      -0.299900
     11 N4           1.1570     0.3750     0.0040 nc         1 780      -0.293600
     12 C8           0.5610    -0.8600    -0.0830 cc         1 780       0.312500
     13 C9          -0.8060    -1.1760    -0.0880 cd         1 780      -0.335200
     14 C10         -1.1800    -2.5720    -0.1780 cd         1 780      -0.084000
     15 C11         -2.5180    -2.8820    -0.1990 cc         1 780      -0.327000
     16 C12         -3.5500    -1.8960    -0.1080 cc         1 780      -0.088000
     17 C13         -3.2720    -0.5460     0.0300 cd         1 780      -0.209400
     18 C14         -1.8390    -0.0940    -0.0150 c          1 780       0.601500
     19 O6          -1.5430     1.0960    -0.0200 o          1 780      -0.656100
     20 C1B         -4.3960     0.4350     0.0680 ca         1 780       0.010200
     21 C2B         -5.6210     0.1540    -0.5860 ca         1 780      -0.103500
     22 C3B         -6.6920     1.0640    -0.5460 ca         1 780      -0.121500
     23 C4B         -6.5670     2.2700     0.1560 ca         1 780      -0.133000
     24 C5B         -5.3680     2.5640     0.8200 ca         1 780      -0.121500
     25 C6B         -4.2950     1.6560     0.7780 ca         1 780      -0.103500
     26 HC2          6.1010    -1.3670    -0.1650 ha         1 780       0.100000
     27 HC3          4.1370    -2.8940    -0.2550 ha         1 780       0.128000
     28 HC6          3.4110     2.0610     0.1220 ha         1 780       0.128000
     29 HH11         5.2270     2.8130    -1.1200 hn         1 780       0.367000
     30 HH12         6.8560     3.1500    -0.6490 hn         1 780       0.367000
     31 HH21         7.9390     1.6490     0.8860 hn         1 780       0.367000
     32 HH22         7.1980     0.1170     1.2040 hn         1 780       0.367000
     33 HN3          1.3020    -2.8820    -0.2330 hn         1 780       0.365000
     34 H1          -0.4700    -3.3910    -0.2390 ha         1 780       0.131000
     35 H7          -2.8220    -3.9230    -0.2770 ha         1 780       0.163000
     36 HC4         -4.5740    -2.2600    -0.1060 ha         1 780       0.158000
     37 H2B         -5.7470    -0.7580    -1.1620 ha         1 780       0.115000
     38 H3B         -7.6200     0.8320    -1.0650 ha         1 780       0.097000
     39 H4B         -7.3960     2.9730     0.1880 ha         1 780       0.097000
     40 H5B         -5.2700     3.4930     1.3780 ha         1 780       0.097000
     41 H6B         -3.3980     1.8990     1.3390 ha         1 780       0.115000
@<TRIPOS>BOND
     1     1     2 ar  
     2     1     6 ar  
     3     1     7 1   
     4     2     3 ar  
     5     2    26 1   
     6     3     4 ar  
     7     3    27 1   
     8     4     5 ar  
     9     4    10 2   
    10     5     6 ar  
    11     5    11 2   
    12     6    28 1   
    13     7     8 2   
    14     7     9 1   
    15     8    29 1   
    16     8    30 1   
    17     9    31 1   
    18     9    32 1   
    19    10    12 1   
    20    10    33 1   
    21    11    12 1   
    22    12    13 2   
    23    13    14 1   
    24    13    18 1   
    25    14    15 2   
    26    14    34 1   
    27    15    16 1   
    28    15    35 1   
    29    16    17 2   
    30    16    36 1   
    31    17    18 1   
    32    17    20 1   
    33    18    19 2   
    34    20    21 ar  
    35    20    25 ar  
    36    21    22 ar  
    37    21    37 1   
    38    22    23 ar  
    39    22    38 1   
    40    23    24 ar  
    41    23    39 1   
    42    24    25 ar  
    43    24    40 1   
    44    25    41 1   
@<TRIPOS>SUBSTRUCTURE
     1 780         1 TEMP              0 ****  ****    0 ROOT
