@<TRIPOS>MOLECULE
780
   41    44     1     0     0
SMALL
abcg2


@<TRIPOS>ATOM
      1 C1           4.8380     0.4500    -0.0600 ca         1 780      -0.298900
      2 C2           5.0200    -0.8380    -0.5980 ca         1 780      -0.104000
      3 C3           3.9520    -1.6930    -0.7900 ca         1 780      -0.103000
      4 C4           2.6970    -1.2250    -0.4230 ca         1 780      -0.004000
      5 C5           2.4910     0.0640     0.1070 ca         1 780      -0.038000
      6 C6           3.5720     0.9140     0.2930 ca         1 780      -0.029000
      7 C7           6.0030     1.3180     0.1340 ce         1 780       0.531400
      8 N1           5.8760     2.6180    -0.0000 nv         1 780      -0.590200
      9 N2           7.1650     0.7880     0.4400 nv         1 780      -0.574300
     10 N3           1.4560    -1.7750    -0.4590 na         1 780      -0.299900
     11 N4           1.1660     0.2630     0.3760 nc         1 780      -0.293600
     12 C8           0.5600    -0.8510     0.0290 cc         1 780       0.312500
     13 C9          -0.8510    -1.1680     0.1420 cd         1 780      -0.335200
     14 C10         -1.2240    -2.4980     0.3620 cd         1 780      -0.084000
     15 C11         -2.5470    -2.8740     0.4730 cc         1 780      -0.327000
     16 C12         -3.5270    -1.8860     0.3560 cc         1 780      -0.088000
     17 C13         -3.2170    -0.5560     0.1380 cd         1 780      -0.209400
     18 C14         -1.8390    -0.1200     0.0080 c          1 780       0.601500
     19 O6          -1.5410     1.0710    -0.2360 o          1 780      -0.656100
     20 C1B         -4.3120     0.4260     0.0070 ca         1 780       0.010200
     21 C2B         -5.4460     0.1190    -0.7520 ca         1 780      -0.103500
     22 C3B         -6.5130     1.0010    -0.8500 ca         1 780      -0.121500
     23 C4B         -6.4700     2.2230    -0.1940 ca         1 780      -0.133000
     24 C5B         -5.3480     2.5470     0.5610 ca         1 780      -0.121500
     25 C6B         -4.2820     1.6660     0.6550 ca         1 780      -0.103500
     26 HC2          6.0060    -1.1660    -0.8980 ha         1 780       0.100000
     27 HC3          4.0980    -2.6770    -1.2130 ha         1 780       0.128000
     28 HC6          3.4230     1.8930     0.7300 ha         1 780       0.128000
     29 HH11         5.0280     3.0200    -0.3650 hn         1 780       0.367000
     30 HH12         6.6310     3.2540     0.2030 hn         1 780       0.367000
     31 HH21         8.0050     1.3430     0.5130 hn         1 780       0.367000
     32 HH22         7.2430    -0.1880     0.6770 hn         1 780       0.367000
     33 HN3          1.2220    -2.6770    -0.8430 hn         1 780       0.365000
     34 H1          -0.4580    -3.2570     0.4860 ha         1 780       0.131000
     35 H7          -2.8180    -3.9020     0.6680 ha         1 780       0.163000
     36 HC4         -4.5690    -2.1690     0.4630 ha         1 780       0.158000
     37 H2B         -5.4870    -0.8240    -1.2850 ha         1 780       0.115000
     38 H3B         -7.3760     0.7350    -1.4480 ha         1 780       0.097000
     39 H4B         -7.2980     2.9160    -0.2680 ha         1 780       0.097000
     40 H5B         -5.3050     3.4950     1.0830 ha         1 780       0.097000
     41 H6B         -3.4250     1.9360     1.2560 ha         1 780       0.115000
@<TRIPOS>BOND
     1     1     2 ar  
     2     1     6 ar  
     3     1     7 1   
     4     2     3 ar  
     5     2    26 1   
     6     3     4 ar  
     7     3    27 1   
     8     4     5 ar  
     9     4    10 2   
    10     5     6 ar  
    11     5    11 2   
    12     6    28 1   
    13     7     8 2   
    14     7     9 1   
    15     8    29 1   
    16     8    30 1   
    17     9    31 1   
    18     9    32 1   
    19    10    12 1   
    20    10    33 1   
    21    11    12 1   
    22    12    13 2   
    23    13    14 1   
    24    13    18 1   
    25    14    15 2   
    26    14    34 1   
    27    15    16 1   
    28    15    35 1   
    29    16    17 2   
    30    16    36 1   
    31    17    18 1   
    32    17    20 1   
    33    18    19 2   
    34    20    21 ar  
    35    20    25 ar  
    36    21    22 ar  
    37    21    37 1   
    38    22    23 ar  
    39    22    38 1   
    40    23    24 ar  
    41    23    39 1   
    42    24    25 ar  
    43    24    40 1   
    44    25    41 1   
@<TRIPOS>SUBSTRUCTURE
     1 780         1 TEMP              0 ****  ****    0 ROOT
