@<TRIPOS>MOLECULE
781
   29    30     1     0     0
SMALL
No Charge or Current Charge


@<TRIPOS>ATOM
      1 O1          62.0110     5.1640    14.2280 o          1 781      -0.581100
      2 C7          61.0540     5.2650    14.9870 c          1 781       0.603100
      3 C8          59.6570     4.7740    14.5810 c3         1 781      -0.155400
      4 C9          59.5590     3.2320    14.6070 c3         1 781      -0.080100
      5 N           61.1090     5.8480    16.2470 ns         1 781      -0.151000
      6 C6          62.1760     6.4190    16.9930 ca         1 781       0.003000
      7 C5          61.8610     6.9950    18.2370 ca         1 781      -0.186000
      8 C4          62.8590     7.5790    19.0370 ca         1 781       0.024000
      9 C3          62.5160     8.1510    20.2760 ca         1 781      -0.146000
     10 C2          63.5050     8.7370    21.0830 ca         1 781      -0.058000
     11 C1          64.8410     8.7520    20.6530 ca         1 781      -0.226000
     12 C           65.1940     8.1840    19.4180 ca         1 781       0.162100
     13 O           66.5030     8.2160    19.0300 oh         1 781      -0.537100
     14 C12         64.2020     7.5920    18.6000 ca         1 781      -0.082000
     15 C11         64.5220     7.0120    17.3540 ca         1 781      -0.048000
     16 C10         63.5190     6.4300    16.5590 ca         1 781      -0.138000
     17 H1          59.4470     5.1130    13.5590 hc         1 781       0.057200
     18 H2          58.9000     5.1770    15.2660 hc         1 781       0.057200
     19 H3          58.5540     2.9060    14.3120 hc         1 781       0.045700
     20 H4          60.2810     2.7840    13.9140 hc         1 781       0.045700
     21 H5          59.7620     2.8470    15.6140 hc         1 781       0.045700
     22 H6          60.2210     5.8660    16.7300 hn         1 781       0.147000
     23 H7          60.8300     6.9910    18.5840 ha         1 781       0.110000
     24 H8          61.4830     8.1430    20.6160 ha         1 781       0.114000
     25 H9          63.2340     9.1780    22.0410 ha         1 781       0.112000
     26 H10         65.5980     9.2080    21.2860 ha         1 781       0.113000
     27 H11         67.0190     8.6650    19.7320 ho         1 781       0.464000
     28 H12         65.5480     7.0060    16.9940 ha         1 781       0.131000
     29 H13         63.8110     5.9900    15.6100 ha         1 781       0.152000
@<TRIPOS>BOND
     1     1     2 2   
     2     2     3 1   
     3     2     5 1   
     4     3     4 1   
     5     3    17 1   
     6     3    18 1   
     7     4    19 1   
     8     4    20 1   
     9     4    21 1   
    10     5     6 1   
    11     5    22 1   
    12     6     7 ar  
    13     6    16 ar  
    14     7     8 ar  
    15     7    23 1   
    16     8     9 ar  
    17     8    14 ar  
    18     9    10 ar  
    19     9    24 1   
    20    10    11 ar  
    21    10    25 1   
    22    11    12 ar  
    23    11    26 1   
    24    12    13 1   
    25    12    14 ar  
    26    13    27 1   
    27    14    15 ar  
    28    15    16 ar  
    29    15    28 1   
    30    16    29 1   
@<TRIPOS>SUBSTRUCTURE
     1 781         1 TEMP              0 ****  ****    0 ROOT
