@<TRIPOS>MOLECULE
781
   29    30     1     0     0
SMALL
abcg2


@<TRIPOS>ATOM
      1 O1          62.0590     4.8120    14.6260 o          1 781      -0.581100
      2 C7          61.0470     5.0850    15.2630 c          1 781       0.603100
      3 C8          59.6650     4.6770    14.7840 c3         1 781      -0.155400
      4 C9          59.6380     3.2740    14.1840 c3         1 781      -0.080100
      5 N           61.0500     5.7910    16.4310 ns         1 781      -0.151000
      6 C6          62.1180     6.3780    17.1320 ca         1 781       0.003000
      7 C5          61.8240     7.0290    18.3130 ca         1 781      -0.186000
      8 C4          62.8280     7.6470    19.0860 ca         1 781       0.024000
      9 C3          62.5320     8.3150    20.3020 ca         1 781      -0.146000
     10 C2          63.5380     8.9000    21.0250 ca         1 781      -0.058000
     11 C1          64.8760     8.8520    20.5840 ca         1 781      -0.226000
     12 C           65.1910     8.2120    19.4080 ca         1 781       0.162100
     13 O           66.4660     8.1320    18.9320 oh         1 781      -0.537100
     14 C12         64.1780     7.5920    18.6250 ca         1 781      -0.082000
     15 C11         64.4530     6.9220    17.4120 ca         1 781      -0.048000
     16 C10         63.4600     6.3270    16.6770 ca         1 781      -0.138000
     17 H1          59.3730     5.4110    14.0250 hc         1 781       0.057200
     18 H2          58.9400     4.7610    15.5950 hc         1 781       0.057200
     19 H3          58.6390     3.0430    13.8150 hc         1 781       0.045700
     20 H4          60.3380     3.1910    13.3530 hc         1 781       0.045700
     21 H5          59.9060     2.5240    14.9320 hc         1 781       0.045700
     22 H6          60.1460     5.9230    16.8590 hn         1 781       0.147000
     23 H7          60.7990     7.0720    18.6640 ha         1 781       0.110000
     24 H8          61.5050     8.3540    20.6450 ha         1 781       0.114000
     25 H9          63.3130     9.4100    21.9540 ha         1 781       0.112000
     26 H10         65.6610     9.3180    21.1690 ha         1 781       0.113000
     27 H11         67.0720     8.5760    19.5400 ho         1 781       0.464000
     28 H12         65.4730     6.8780    17.0560 ha         1 781       0.131000
     29 H13         63.6880     5.8200    15.7560 ha         1 781       0.152000
@<TRIPOS>BOND
     1     1     2 2   
     2     2     3 1   
     3     2     5 1   
     4     3     4 1   
     5     3    17 1   
     6     3    18 1   
     7     4    19 1   
     8     4    20 1   
     9     4    21 1   
    10     5     6 1   
    11     5    22 1   
    12     6     7 ar  
    13     6    16 ar  
    14     7     8 ar  
    15     7    23 1   
    16     8     9 ar  
    17     8    14 ar  
    18     9    10 ar  
    19     9    24 1   
    20    10    11 ar  
    21    10    25 1   
    22    11    12 ar  
    23    11    26 1   
    24    12    13 1   
    25    12    14 ar  
    26    13    27 1   
    27    14    15 ar  
    28    15    16 ar  
    29    15    28 1   
    30    16    29 1   
@<TRIPOS>SUBSTRUCTURE
     1 781         1 TEMP              0 ****  ****    0 ROOT
