@<TRIPOS>MOLECULE
782
   60    63     1     0     0
SMALL
No Charge or Current Charge


@<TRIPOS>ATOM
      1 C1           3.5560     3.4410     0.8250 ca         1 782      -0.146000
      2 C2           4.4880     3.3240    -0.2130 ca         1 782       0.133100
      3 C3           4.5510     2.1450    -0.9680 ca         1 782      -0.213000
      4 O1           5.3320     4.3570    -0.4880 oh         1 782      -0.538100
      5 O2          -6.4300     3.2210     0.2850 o          1 782      -0.722500
      6 O3          -6.0510     4.1910    -1.5970 o          1 782      -0.722500
      7 C11         -0.3350    -2.1000    -0.8220 ca         1 782      -0.119000
      8 C12         -1.2590    -3.1570    -0.7590 ca         1 782      -0.102000
      9 C13         -0.9420    -4.3400    -0.0630 ca         1 782      -0.090300
     10 C14          0.3170    -4.4480     0.5630 ca         1 782      -0.102000
     11 C15          1.2370    -3.3870     0.4970 ca         1 782      -0.119000
     12 C16         -1.9540    -5.4860     0.0040 c3         1 782      -0.013400
     13 C17         -1.4130    -6.7610    -0.6820 c3         1 782      -0.082600
     14 C18         -2.3970    -5.7650     1.4580 c3         1 782      -0.082600
     15 C19          0.2930     0.6020     0.6310 ca         1 782      -0.121300
     16 C20         -0.0870     1.3780    -0.4870 ca         1 782      -0.094500
     17 C21         -1.3830     1.9090    -0.5960 ca         1 782      -0.133000
     18 C22         -2.3390     1.6750     0.4110 ca         1 782       0.010200
     19 C23         -1.9720     0.8970     1.5230 ca         1 782      -0.133000
     20 C24         -0.6760     0.3640     1.6360 ca         1 782      -0.094500
     21 C26         -3.7230     2.2240     0.3240 ce         1 782      -0.244200
     22 C27         -4.2910     3.0020    -0.6520 cf         1 782      -0.209200
     23 C28         -5.6980     3.5070    -0.6500 c          1 782       0.695200
     24 C4           3.6810     1.0740    -0.6850 ca         1 782      -0.028300
     25 C5           2.7330     1.1810     0.3610 ca         1 782      -0.097300
     26 C6           2.6820     2.3790     1.1100 ca         1 782      -0.057000
     27 C7           3.7600    -0.1970    -1.5200 c6         1 782      -0.034100
     28 C8           3.2120    -1.4110    -0.7540 c6         1 782       0.191800
     29 N1           1.8450    -1.1340    -0.2550 nh         1 782      -0.777400
     30 C9           1.7390     0.0290     0.6930 c6         1 782       0.330800
     31 C10          0.9150    -2.1980    -0.1850 ca         1 782       0.256000
     32 H1           3.5050     4.3570     1.4080 ha         1 782       0.126000
     33 H2           5.2720     2.0540    -1.7770 ha         1 782       0.103000
     34 H3           5.9040     4.0930    -1.2390 ho         1 782       0.457000
     35 H5          -0.5900    -1.1990    -1.3710 ha         1 782       0.122500
     36 H6          -2.2210    -3.0530    -1.2550 ha         1 782       0.108500
     37 H7           0.5870    -5.3520     1.1020 ha         1 782       0.108500
     38 H8           2.2020    -3.4840     0.9860 ha         1 782       0.122500
     39 H9          -2.8560    -5.1940    -0.5470 hc         1 782       0.051700
     40 H10         -0.5340    -7.1520    -0.1560 hc         1 782       0.031200
     41 H11         -2.1790    -7.5450    -0.6980 hc         1 782       0.031200
     42 H12         -1.1260    -6.5450    -1.7180 hc         1 782       0.031200
     43 H13         -2.7980    -4.8540     1.9170 hc         1 782       0.031200
     44 H14         -3.1800    -6.5310     1.4830 hc         1 782       0.031200
     45 H15         -1.5560    -6.1160     2.0680 hc         1 782       0.031200
     46 H16          0.6280     1.5630    -1.2850 ha         1 782       0.102500
     47 H17         -1.6330     2.5000    -1.4720 ha         1 782       0.114500
     48 H18         -2.6960     0.6980     2.3090 ha         1 782       0.114500
     49 H19         -0.4480    -0.2390     2.5090 ha         1 782       0.102500
     50 H20          1.5180    -1.3550     2.4210 hc         1 782       0.039367
     51 H21          3.1680    -0.7900     2.1680 hc         1 782       0.039367
     52 H22          1.9710     0.2870     2.8820 hc         1 782       0.039367
     53 H23         -4.3530     1.9520     1.1730 ha         1 782       0.190000
     54 H24         -3.7000     3.2970    -1.5140 ha         1 782       0.143000
     55 H25          1.9560     2.4920     1.9120 ha         1 782       0.126000
     56 H26          3.1870    -0.0590    -2.4460 hc         1 782       0.052700
     57 H27          4.7980    -0.3960    -1.8190 hc         1 782       0.052700
     58 H28          3.2040    -2.2810    -1.4280 h1         1 782       0.031700
     59 H29          3.8840    -1.6500     0.0840 h1         1 782       0.031700
     60 C25          2.1160    -0.4880     2.1210 c3         1 782      -0.111100
@<TRIPOS>BOND
     1     1     2 ar  
     2     1    26 ar  
     3     1    32 1   
     4     2     3 ar  
     5     2     4 1   
     6     3    24 ar  
     7     3    33 1   
     8     4    34 1   
     9     5    23 1   
    10     6    23 1   
    11     7     8 ar  
    12     7    31 ar  
    13     7    35 1   
    14     8     9 ar  
    15     8    36 1   
    16     9    10 ar  
    17     9    12 1   
    18    10    11 ar  
    19    10    37 1   
    20    11    31 ar  
    21    11    38 1   
    22    12    13 1   
    23    12    14 1   
    24    12    39 1   
    25    13    40 1   
    26    13    41 1   
    27    13    42 1   
    28    14    43 1   
    29    14    44 1   
    30    14    45 1   
    31    15    16 ar  
    32    15    20 ar  
    33    15    30 1   
    34    16    17 ar  
    35    16    46 1   
    36    17    18 ar  
    37    17    47 1   
    38    18    19 ar  
    39    18    21 1   
    40    19    20 ar  
    41    19    48 1   
    42    20    49 1   
    43    21    22 2   
    44    21    53 1   
    45    22    23 1   
    46    22    54 1   
    47    24    25 ar  
    48    24    27 1   
    49    25    26 ar  
    50    25    30 1   
    51    26    55 1   
    52    27    28 1   
    53    27    56 1   
    54    27    57 1   
    55    28    29 1   
    56    28    58 1   
    57    28    59 1   
    58    29    30 1   
    59    29    31 1   
    60    30    60 1   
    61    50    60 1   
    62    51    60 1   
    63    52    60 1   
@<TRIPOS>SUBSTRUCTURE
     1 782         1 TEMP              0 ****  ****    0 ROOT
