@<TRIPOS>MOLECULE
782
   60    63     1     0     0
SMALL
abcg2


@<TRIPOS>ATOM
      1 C1           3.4700     3.2920     0.9750 ca         1 782      -0.146000
      2 C2           4.4310     3.2200    -0.0340 ca         1 782       0.133100
      3 C3           4.4850     2.0910    -0.8360 ca         1 782      -0.213000
      4 O1           5.2720     4.2650    -0.1780 oh         1 782      -0.538100
      5 O2          -6.2610     3.5070     0.2850 o          1 782      -0.722500
      6 O3          -5.8680     4.3890    -1.7260 o          1 782      -0.722500
      7 C11         -0.4910    -2.0870    -0.7070 ca         1 782      -0.119000
      8 C12         -1.3360    -3.1790    -0.5640 ca         1 782      -0.102000
      9 C13         -0.8930    -4.3770    -0.0130 ca         1 782      -0.090300
     10 C14          0.4370    -4.4410     0.3990 ca         1 782      -0.102000
     11 C15          1.2820    -3.3490     0.2720 ca         1 782      -0.119000
     12 C16         -1.8240    -5.5580     0.1280 c3         1 782      -0.013400
     13 C17         -1.3000    -6.7860    -0.6180 c3         1 782      -0.082600
     14 C18         -2.0910    -5.8870     1.5970 c3         1 782      -0.082600
     15 C19          0.2280     0.6140     0.5620 ca         1 782      -0.121300
     16 C20         -0.1460     1.3100    -0.5920 ca         1 782      -0.094500
     17 C21         -1.3880     1.8940    -0.7090 ca         1 782      -0.133000
     18 C22         -2.3240     1.8120     0.3330 ca         1 782       0.010200
     19 C23         -1.9470     1.1210     1.4810 ca         1 782      -0.133000
     20 C24         -0.6920     0.5330     1.5960 ca         1 782      -0.094500
     21 C26         -3.6540     2.4160     0.2650 ce         1 782      -0.244200
     22 C27         -4.1630     3.1300    -0.7430 cf         1 782      -0.209200
     23 C28         -5.5530     3.7230    -0.7190 c          1 782       0.695200
     24 C4           3.5940     1.0330    -0.6520 ca         1 782      -0.028300
     25 C5           2.6300     1.1000     0.3470 ca         1 782      -0.097300
     26 C6           2.5910     2.2420     1.1490 ca         1 782      -0.057000
     27 C7           3.6800    -0.1740    -1.5370 c6         1 782      -0.034100
     28 C8           3.0470    -1.3710    -0.8630 c6         1 782       0.191800
     29 N1           1.6930    -1.0310    -0.4570 nh         1 782      -0.777400
     30 C9           1.6180    -0.0150     0.6150 c6         1 782       0.330800
     31 C10          0.8340    -2.1500    -0.2840 ca         1 782       0.256000
     32 H1           3.4140     4.1670     1.6100 ha         1 782       0.126000
     33 H2           5.2310     2.0170    -1.6220 ha         1 782       0.103000
     34 H3           5.8830     4.1070    -0.9060 ho         1 782       0.457000
     35 H5          -0.8640    -1.1810    -1.1650 ha         1 782       0.122500
     36 H6          -2.3620    -3.0990    -0.9070 ha         1 782       0.108500
     37 H7           0.8290    -5.3520     0.8340 ha         1 782       0.108500
     38 H8           2.3060    -3.4390     0.6130 ha         1 782       0.122500
     39 H9          -2.7780    -5.2740    -0.3270 hc         1 782       0.051700
     40 H10         -0.3670    -7.1480    -0.1820 hc         1 782       0.031200
     41 H11         -2.0230    -7.6020    -0.5710 hc         1 782       0.031200
     42 H12         -1.1140    -6.5640    -1.6690 hc         1 782       0.031200
     43 H13         -2.4780    -5.0210     2.1350 hc         1 782       0.031200
     44 H14         -2.8250    -6.6900     1.6860 hc         1 782       0.031200
     45 H15         -1.1810    -6.2150     2.1030 hc         1 782       0.031200
     46 H16          0.5550     1.3860    -1.4150 ha         1 782       0.102500
     47 H17         -1.6360     2.4220    -1.6210 ha         1 782       0.114500
     48 H18         -2.6470     1.0380     2.3040 ha         1 782       0.114500
     49 H19         -0.4500     0.0090     2.5110 ha         1 782       0.102500
     50 H20          1.2380    -1.4140     2.2590 hc         1 782       0.039367
     51 H21          2.9400    -1.0450     1.9900 hc         1 782       0.039367
     52 H22          1.9040     0.1310     2.7780 hc         1 782       0.039367
     53 H23         -4.2820     2.2610     1.1380 ha         1 782       0.190000
     54 H24         -3.5750     3.3190    -1.6370 ha         1 782       0.143000
     55 H25          1.8430     2.3240     1.9290 ha         1 782       0.126000
     56 H26          3.1680     0.0220    -2.4840 hc         1 782       0.052700
     57 H27          4.7220    -0.3920    -1.7810 hc         1 782       0.052700
     58 H28          2.9910    -2.2020    -1.5670 h1         1 782       0.031700
     59 H29          3.6840    -1.7050    -0.0310 h1         1 782       0.031700
     60 C25          1.9360    -0.6210     1.9910 c3         1 782      -0.111100
@<TRIPOS>BOND
     1     1     2 ar  
     2     1    26 ar  
     3     1    32 1   
     4     2     3 ar  
     5     2     4 1   
     6     3    24 ar  
     7     3    33 1   
     8     4    34 1   
     9     5    23 1   
    10     6    23 1   
    11     7     8 ar  
    12     7    31 ar  
    13     7    35 1   
    14     8     9 ar  
    15     8    36 1   
    16     9    10 ar  
    17     9    12 1   
    18    10    11 ar  
    19    10    37 1   
    20    11    31 ar  
    21    11    38 1   
    22    12    13 1   
    23    12    14 1   
    24    12    39 1   
    25    13    40 1   
    26    13    41 1   
    27    13    42 1   
    28    14    43 1   
    29    14    44 1   
    30    14    45 1   
    31    15    16 ar  
    32    15    20 ar  
    33    15    30 1   
    34    16    17 ar  
    35    16    46 1   
    36    17    18 ar  
    37    17    47 1   
    38    18    19 ar  
    39    18    21 1   
    40    19    20 ar  
    41    19    48 1   
    42    20    49 1   
    43    21    22 2   
    44    21    53 1   
    45    22    23 1   
    46    22    54 1   
    47    24    25 ar  
    48    24    27 1   
    49    25    26 ar  
    50    25    30 1   
    51    26    55 1   
    52    27    28 1   
    53    27    56 1   
    54    27    57 1   
    55    28    29 1   
    56    28    58 1   
    57    28    59 1   
    58    29    30 1   
    59    29    31 1   
    60    30    60 1   
    61    50    60 1   
    62    51    60 1   
    63    52    60 1   
@<TRIPOS>SUBSTRUCTURE
     1 782         1 TEMP              0 ****  ****    0 ROOT
