@<TRIPOS>MOLECULE
783
   46    49     1     0     0
SMALL
bcc


@<TRIPOS>ATOM
      1 C1          -5.2700    -0.3090     0.0320 ca         1 783      -0.313900
      2 C2          -4.8090    -1.6360    -0.0950 ca         1 783      -0.125000
      3 C3          -3.4590    -1.9150    -0.1390 ca         1 783      -0.120000
      4 C4          -2.5700    -0.8450    -0.0670 ca         1 783       0.037000
      5 C5          -3.0120     0.5010     0.0520 ca         1 783      -0.070000
      6 C6          -4.3800     0.7580     0.1060 ca         1 783      -0.051000
      7 C7          -6.7100    -0.0510     0.0840 ce         1 783       0.529400
      8 N1          -7.5340    -0.8100    -0.6030 nv         1 783      -0.494100
      9 N2          -7.1670     0.9370     0.8200 nv         1 783      -0.478200
     10 N3          -1.2200    -0.8210    -0.0910 na         1 783      -0.192600
     11 CN4         -1.8500     1.3160     0.0900 cc         1 783      -0.287000
     12 C8          -0.7620     0.4690     0.0040 cc         1 783       0.121900
     13 C9           0.6660     0.7450     0.0090 cd         1 783      -0.287200
     14 C10          1.0890     2.0740     0.0560 cd         1 783      -0.044000
     15 C11          2.4300     2.4080     0.0680 cc         1 783      -0.016900
     16 O3           2.7360     3.7370     0.1190 os         1 783      -0.333900
     17 C3X          4.0950     4.1010     0.1100 c3         1 783       0.135700
     18 C12          3.3710     1.3810     0.0390 cc         1 783      -0.091000
     19 C13          2.9900     0.0440    -0.0040 cd         1 783      -0.186400
     20 C14          1.6090    -0.3410    -0.0340 c          1 783       0.570500
     21 O6           1.2520    -1.5640    -0.1040 o          1 783      -0.749100
     22 C1B          4.0460    -0.9870    -0.0440 ca         1 783       0.008200
     23 C2B          5.1550    -0.8320    -0.8800 ca         1 783      -0.120000
     24 C3B          6.1840    -1.7640    -0.8980 ca         1 783      -0.139500
     25 C4B          6.1260    -2.8810    -0.0770 ca         1 783      -0.148000
     26 C5B          5.0290    -3.0530     0.7590 ca         1 783      -0.139500
     27 C6B          4.0000    -2.1230     0.7720 ca         1 783      -0.120000
     28 HC2         -5.5140    -2.4560    -0.1200 ha         1 783       0.116000
     29 HC3         -3.1090    -2.9360    -0.2190 ha         1 783       0.150000
     30 HC6         -4.7360     1.7790     0.1750 ha         1 783       0.123000
     31 HH11        -8.5350    -0.7080    -0.5400 hn         1 783       0.313450
     32 HH12        -7.1840    -1.4780    -1.2680 hn         1 783       0.313450
     33 HH21        -6.5610     1.4260     1.4570 hn         1 783       0.313450
     34 HH22        -8.1410     1.1990     0.8220 hn         1 783       0.313450
     35 HN3         -0.5250    -1.5710    -0.1470 hn         1 783       0.374700
     36 HCN4        -1.8270     2.3910     0.1780 ha         1 783       0.157000
     37 H1           0.3540     2.8700     0.0850 ha         1 783       0.118000
     38 H31          4.6350     3.7190     0.9820 h1         1 783       0.025700
     39 H32          4.6110     3.7560    -0.7920 h1         1 783       0.025700
     40 H33          4.1300     5.1880     0.1330 h1         1 783       0.025700
     41 HC4          4.4310     1.6050     0.0750 ha         1 783       0.118000
     42 H2B          5.2080     0.0290    -1.5360 ha         1 783       0.131500
     43 H3B          7.0290    -1.6180    -1.5600 ha         1 783       0.116500
     44 H4B          6.9250    -3.6110    -0.0880 ha         1 783       0.116000
     45 H5B          4.9750    -3.9170     1.4090 ha         1 783       0.116500
     46 H6B          3.1620    -2.2710     1.4380 ha         1 783       0.131500
@<TRIPOS>BOND
     1     1     2 ar  
     2     1     6 ar  
     3     1     7 1   
     4     2     3 ar  
     5     2    28 1   
     6     3     4 ar  
     7     3    29 1   
     8     4     5 ar  
     9     4    10 2   
    10     5     6 ar  
    11     5    11 2   
    12     6    30 1   
    13     7     8 2   
    14     7     9 1   
    15     8    31 1   
    16     8    32 1   
    17     9    33 1   
    18     9    34 1   
    19    10    12 1   
    20    10    35 1   
    21    11    12 1   
    22    11    36 1   
    23    12    13 2   
    24    13    14 1   
    25    13    20 1   
    26    14    15 2   
    27    14    37 1   
    28    15    16 1   
    29    15    18 1   
    30    16    17 1   
    31    17    38 1   
    32    17    39 1   
    33    17    40 1   
    34    18    19 2   
    35    18    41 1   
    36    19    20 1   
    37    19    22 1   
    38    20    21 2   
    39    22    23 ar  
    40    22    27 ar  
    41    23    24 ar  
    42    23    42 1   
    43    24    25 ar  
    44    24    43 1   
    45    25    26 ar  
    46    25    44 1   
    47    26    27 ar  
    48    26    45 1   
    49    27    46 1   
@<TRIPOS>SUBSTRUCTURE
     1 783         1 TEMP              0 ****  ****    0 ROOT
