@<TRIPOS>MOLECULE
783
   46    49     1     0     0
SMALL
No Charge or Current Charge


@<TRIPOS>ATOM
      1 C1          -5.3550    -0.2570     0.0530 ca         1 783      -0.313900
      2 C2          -4.8940    -1.6060     0.0180 ca         1 783      -0.107000
      3 C3          -3.5150    -1.9060     0.0050 ca         1 783      -0.102000
      4 C4          -2.6070    -0.8430     0.0260 ca         1 783       0.037000
      5 C5          -3.0460     0.4710     0.0600 ca         1 783      -0.070000
      6 C6          -4.4070     0.7990     0.0740 ca         1 783      -0.033000
      7 C7          -6.8130     0.0450     0.0660 ce         1 783       0.529400
      8 N1          -7.6830    -0.8010    -0.5630 nv         1 783      -0.594700
      9 N2          -7.2680     1.1630     0.7050 nv         1 783      -0.578800
     10 N3          -1.2170    -0.8880     0.0170 na         1 783      -0.242900
     11 CN4         -1.8760     1.3120     0.0710 cc         1 783      -0.337000
     12 C8          -0.7590     0.4180     0.0440 cc         1 783       0.121900
     13 C9           0.6220     0.6360     0.0420 cd         1 783      -0.287200
     14 C10          1.0070     2.0230     0.0600 cd         1 783      -0.094000
     15 C11          2.3500     2.3110     0.0390 cc         1 783      -0.016900
     16 O3           2.6050     3.6610     0.0410 os         1 783      -0.357100
     17 C3X          3.9460     4.1850     0.0250 c3         1 783       0.158900
     18 C12          3.3850     1.3130     0.0240 cc         1 783      -0.141000
     19 C13          3.0860    -0.0430     0.0550 cd         1 783      -0.186400
     20 C14          1.6420    -0.4720     0.0090 c          1 783       0.570500
     21 O6           1.3160    -1.6560    -0.0750 o          1 783      -0.749100
     22 C1B          4.1940    -1.0410    -0.0160 ca         1 783       0.008200
     23 C2B          5.4090    -0.7260    -0.6740 ca         1 783      -0.102000
     24 C3B          6.4650    -1.6520    -0.7340 ca         1 783      -0.121500
     25 C4B          6.3350    -2.9100    -0.1300 ca         1 783      -0.130000
     26 C5B          5.1460    -3.2390     0.5360 ca         1 783      -0.121500
     27 C6B          4.0880    -2.3140     0.5940 ca         1 783      -0.102000
     28 HC2         -5.6040    -2.4310     0.0130 ha         1 783       0.098000
     29 HC3         -3.1680    -2.9370    -0.0190 ha         1 783       0.132000
     30 HC6         -4.7110     1.8440     0.0880 ha         1 783       0.105000
     31 HH11        -8.6210    -0.4750    -0.7480 hn         1 783       0.363750
     32 HH12        -7.2920    -1.4960    -1.1840 hn         1 783       0.363750
     33 HH21        -6.6280     1.6330     1.3300 hn         1 783       0.363750
     34 HH22        -8.2570     1.2380     0.9010 hn         1 783       0.363750
     35 HN3         -0.6090    -1.7040    -0.0160 hn         1 783       0.425000
     36 HCN4        -1.8370     2.3960     0.0960 ha         1 783       0.207000
     37 H1           0.2900     2.8360     0.0780 ha         1 783       0.168000
     38 H31          4.5050     3.8540     0.9100 h1         1 783       0.025700
     39 H32          4.4820     3.8560    -0.8750 h1         1 783       0.025700
     40 H33          3.9250     5.2820     0.0260 h1         1 783       0.025700
     41 HC4          4.4170     1.6420     0.0350 ha         1 783       0.168000
     42 H2B          5.5360     0.2280    -1.1780 ha         1 783       0.113500
     43 H3B          7.3840    -1.3920    -1.2550 ha         1 783       0.098500
     44 H4B          7.1530    -3.6250    -0.1750 ha         1 783       0.098000
     45 H5B          5.0450    -4.2090     1.0170 ha         1 783       0.098500
     46 H6B          3.1990    -2.5890     1.1530 ha         1 783       0.113500
@<TRIPOS>BOND
     1     1     2 ar  
     2     1     6 ar  
     3     1     7 1   
     4     2     3 ar  
     5     2    28 1   
     6     3     4 ar  
     7     3    29 1   
     8     4     5 ar  
     9     4    10 2   
    10     5     6 ar  
    11     5    11 2   
    12     6    30 1   
    13     7     8 2   
    14     7     9 1   
    15     8    31 1   
    16     8    32 1   
    17     9    33 1   
    18     9    34 1   
    19    10    12 1   
    20    10    35 1   
    21    11    12 1   
    22    11    36 1   
    23    12    13 2   
    24    13    14 1   
    25    13    20 1   
    26    14    15 2   
    27    14    37 1   
    28    15    16 1   
    29    15    18 1   
    30    16    17 1   
    31    17    38 1   
    32    17    39 1   
    33    17    40 1   
    34    18    19 2   
    35    18    41 1   
    36    19    20 1   
    37    19    22 1   
    38    20    21 2   
    39    22    23 ar  
    40    22    27 ar  
    41    23    24 ar  
    42    23    42 1   
    43    24    25 ar  
    44    24    43 1   
    45    25    26 ar  
    46    25    44 1   
    47    26    27 ar  
    48    26    45 1   
    49    27    46 1   
@<TRIPOS>SUBSTRUCTURE
     1 783         1 TEMP              0 ****  ****    0 ROOT
