@<TRIPOS>MOLECULE
784
   61    64     1     0     0
SMALL
abcg2


@<TRIPOS>ATOM
      1 O18          1.8230     2.7110    -1.2500 o          1 784      -0.500000
      2 C11          1.1380     2.1470    -0.4330 c          1 784       0.582000
      3 N12          1.2160     0.8010    -0.1500 n          1 784      -0.391400
      4 C19          2.1880    -0.0890    -0.7450 c3         1 784       0.111000
      5 C21          3.4390    -0.2190     0.1210 c3         1 784      -0.126400
      6 C23          4.4440    -1.0920    -0.6060 c3         1 784       0.100600
      7 N29          5.7130    -1.3690     0.1510 n4         1 784      -0.496000
      8 C32          5.4290    -2.0940     1.4210 c3         1 784       0.075233
      9 C31          6.4430    -0.1060     0.4500 c3         1 784       0.075233
     10 C30          6.5730    -2.2300    -0.7090 c3         1 784       0.075233
     11 C5           0.0780     2.7650     0.4490 c5         1 784      -0.144700
     12 C2          -0.5650     1.5720     1.1630 c5         1 784      -0.151700
     13 C6           0.3260     0.4020     0.8250 c          1 784       0.582000
     14 O13          0.2990    -0.7040     1.3020 o          1 784      -0.496000
     15 C7          -1.0380     3.3970    -0.3660 c5         1 784       0.157500
     16 C14         -1.9110     4.4310     0.3720 c5         1 784      -0.103400
     17 C15         -3.3410     4.1230    -0.1120 c5         1 784      -0.111400
     18 C8          -3.1870     2.8850    -1.0250 c5         1 784       0.141800
     19 N3          -1.9150     2.2710    -0.6670 n3         1 784      -0.688600
     20 C1          -1.9940     1.4750     0.5540 c5         1 784       0.226800
     21 C4          -2.4810     0.0760     0.2940 ca         1 784      -0.085300
     22 C10         -3.2000    -0.6030     1.2720 ca         1 784      -0.099500
     23 C17         -3.6110    -1.9090     1.0750 ca         1 784      -0.080500
     24 C20         -3.3080    -2.5760    -0.1110 ca         1 784      -0.128900
     25 C22         -3.7620    -3.9810    -0.2980 ce         1 784       0.653800
     26 N25         -4.7840    -4.3870     0.3520 n2         1 784      -0.816100
     27 N24         -3.0500    -4.7070    -1.2110 nv         1 784      -1.077200
     28 C16         -2.6010    -1.8910    -1.0970 ca         1 784      -0.080500
     29 C9          -2.1970    -0.5800    -0.8980 ca         1 784      -0.099500
     30 H191         2.4390     0.3020    -1.7300 h1         1 784       0.076700
     31 H192         1.7180    -1.0620    -0.8900 h1         1 784       0.076700
     32 H211         3.1620    -0.6530     1.0820 hc         1 784       0.073700
     33 H212         3.8480     0.7760     0.3070 hc         1 784       0.073700
     34 H231         4.7420    -0.6260    -1.5450 hx         1 784       0.094700
     35 H232         4.0110    -2.0660    -0.8410 hx         1 784       0.094700
     36 H321         4.8980    -1.4430     2.1080 hx         1 784       0.097922
     37 H322         4.8310    -2.9750     1.2030 hx         1 784       0.097922
     38 H323         6.3720    -2.3970     1.8690 hx         1 784       0.097922
     39 H311         7.3850    -0.3520     0.9320 hx         1 784       0.097922
     40 H312         6.6370     0.4210    -0.4800 hx         1 784       0.097922
     41 H313         5.8510     0.5150     1.1140 hx         1 784       0.097922
     42 H301         6.0490    -3.1580    -0.9200 hx         1 784       0.097922
     43 H302         6.7860    -1.7080    -1.6370 hx         1 784       0.097922
     44 H303         7.5010    -2.4420    -0.1850 hx         1 784       0.097922
     45 H5           0.5620     3.4740     1.1240 hc         1 784       0.099700
     46 H2          -0.6230     1.6730     2.2450 hc         1 784       0.100700
     47 H7          -0.6660     3.8340    -1.2960 h1         1 784       0.098700
     48 H141        -1.8290     4.3120     1.4550 hc         1 784       0.054200
     49 H142        -1.5960     5.4480     0.1410 hc         1 784       0.054200
     50 H151        -4.0010     3.9130     0.7300 hc         1 784       0.058200
     51 H152        -3.7820     4.9570    -0.6580 hc         1 784       0.058200
     52 H8C1        -4.0040     2.1700    -0.9300 h1         1 784       0.070700
     53 H8C2        -3.1440     3.1890    -2.0730 h1         1 784       0.070700
     54 H1          -2.6680     1.9320     1.2940 h1         1 784       0.055700
     55 H10         -3.4430    -0.1040     2.2030 ha         1 784       0.120500
     56 H17         -4.1700    -2.4240     1.8440 ha         1 784       0.130500
     57 H25         -4.9730    -5.3690     0.1660 hn         1 784       0.377400
     58 H241        -2.0820    -4.4730    -1.3570 hn         1 784       0.459500
     59 H242        -3.2380    -5.6960    -1.2630 hn         1 784       0.459500
     60 H16         -2.3760    -2.3660    -2.0440 ha         1 784       0.130500
     61 H9          -1.6640    -0.0580    -1.6820 ha         1 784       0.120500
@<TRIPOS>BOND
     1     1     2 2   
     2     2     3 1   
     3     2    11 1   
     4     3     4 1   
     5     3    13 1   
     6     4     5 1   
     7     4    30 1   
     8     4    31 1   
     9     5     6 1   
    10     5    32 1   
    11     5    33 1   
    12     6     7 1   
    13     6    34 1   
    14     6    35 1   
    15     7     8 1   
    16     7     9 1   
    17     7    10 1   
    18     8    36 1   
    19     8    37 1   
    20     8    38 1   
    21     9    39 1   
    22     9    40 1   
    23     9    41 1   
    24    10    42 1   
    25    10    43 1   
    26    10    44 1   
    27    11    12 1   
    28    11    15 1   
    29    11    45 1   
    30    12    13 1   
    31    12    20 1   
    32    12    46 1   
    33    13    14 2   
    34    15    16 1   
    35    15    19 1   
    36    15    47 1   
    37    16    17 1   
    38    16    48 1   
    39    16    49 1   
    40    17    18 1   
    41    17    50 1   
    42    17    51 1   
    43    18    19 1   
    44    18    52 1   
    45    18    53 1   
    46    19    20 1   
    47    20    21 1   
    48    20    54 1   
    49    21    22 ar  
    50    21    29 ar  
    51    22    23 ar  
    52    22    55 1   
    53    23    24 ar  
    54    23    56 1   
    55    24    25 1   
    56    24    28 ar  
    57    25    26 2   
    58    25    27 1   
    59    26    57 1   
    60    27    58 1   
    61    27    59 1   
    62    28    29 ar  
    63    28    60 1   
    64    29    61 1   
@<TRIPOS>SUBSTRUCTURE
     1 784         1 TEMP              0 ****  ****    0 ROOT
