@<TRIPOS>MOLECULE
784
   61    64     1     0     0
SMALL
No Charge or Current Charge


@<TRIPOS>ATOM
      1 O18          2.1790     2.9860    -0.6100 o          1 784      -0.500000
      2 C11          1.2720     2.3100    -0.1470 c          1 784       0.582000
      3 N12          1.2510     0.9230    -0.1040 n          1 784      -0.391400
      4 C19          2.2840     0.1290    -0.8020 c3         1 784       0.111000
      5 C21          3.5160    -0.1470     0.0810 c3         1 784      -0.126400
      6 C23          4.5880    -0.9780    -0.6530 c3         1 784       0.100600
      7 N29          5.8700    -1.3220     0.1210 n4         1 784      -0.496000
      8 C32          5.5380    -2.1540     1.3700 c3         1 784       0.075233
      9 C31          6.6080    -0.0410     0.5400 c3         1 784       0.075233
     10 C30          6.7900    -2.1460    -0.7910 c3         1 784       0.075233
     11 C5           0.0550     2.7670     0.6640 c5         1 784      -0.144700
     12 C2          -0.6250     1.4380     1.1880 c5         1 784      -0.151700
     13 C6           0.2520     0.3000     0.6330 c          1 784       0.582000
     14 O13          0.2660    -0.8840     0.9410 o          1 784      -0.496000
     15 C7          -0.9540     3.3680    -0.3600 c5         1 784       0.157500
     16 C14         -1.9400     4.3300     0.3720 c5         1 784      -0.103400
     17 C15         -3.2910     4.0630    -0.3690 c5         1 784      -0.111400
     18 C8          -3.0260     2.8090    -1.2670 c5         1 784       0.141800
     19 N3          -1.7750     2.2110    -0.7300 n3         1 784      -0.688600
     20 C1          -2.0440     1.4660     0.5310 c5         1 784       0.226800
     21 C4          -2.5590     0.0350     0.3230 ca         1 784      -0.085300
     22 C10         -3.1890    -0.6330     1.3900 ca         1 784      -0.099500
     23 C17         -3.6760    -1.9420     1.2380 ca         1 784      -0.080500
     24 C20         -3.5340    -2.6310     0.0120 ca         1 784      -0.128900
     25 C22         -4.0870    -4.0190    -0.1470 ce         1 784       0.653800
     26 N25         -4.9360    -4.5260     0.6480 n2         1 784      -0.816100
     27 N24         -3.5830    -4.8000    -1.1290 nv         1 784      -1.077200
     28 C16         -2.9230    -1.9510    -1.0680 ca         1 784      -0.080500
     29 C9          -2.4390    -0.6400    -0.9120 ca         1 784      -0.099500
     30 H191         2.5980     0.6630    -1.7100 h1         1 784       0.076700
     31 H192         1.8470    -0.8250    -1.1270 h1         1 784       0.076700
     32 H211         3.1950    -0.6770     0.9840 hc         1 784       0.073700
     33 H212         3.9460     0.8090     0.4000 hc         1 784       0.073700
     34 H231         4.8890    -0.4360    -1.5540 hx         1 784       0.094700
     35 H232         4.1380    -1.9210    -0.9700 hx         1 784       0.094700
     36 H321         4.9120    -1.5650     2.0420 hx         1 784       0.097922
     37 H322         5.0060    -3.0590     1.0700 hx         1 784       0.097922
     38 H323         6.4650    -2.4250     1.8800 hx         1 784       0.097922
     39 H311         7.5360    -0.3090     1.0480 hx         1 784       0.097922
     40 H312         6.8340     0.5520    -0.3490 hx         1 784       0.097922
     41 H313         5.9760     0.5370     1.2170 hx         1 784       0.097922
     42 H301         6.2780    -3.0630    -1.0880 hx         1 784       0.097922
     43 H302         7.0380    -1.5600    -1.6780 hx         1 784       0.097922
     44 H303         7.7050    -2.3960    -0.2500 hx         1 784       0.097922
     45 H5           0.3700     3.4910     1.4230 hc         1 784       0.099700
     46 H2          -0.6960     1.3370     2.2750 hc         1 784       0.100700
     47 H7          -0.4800     3.8560    -1.2270 h1         1 784       0.098700
     48 H141        -2.0300     4.1210     1.4450 hc         1 784       0.054200
     49 H142        -1.6210     5.3750     0.2850 hc         1 784       0.054200
     50 H151        -4.1000     3.8760     0.3470 hc         1 784       0.058200
     51 H152        -3.6010     4.9210    -0.9770 hc         1 784       0.058200
     52 H8C1        -3.8710     2.1050    -1.2620 h1         1 784       0.070700
     53 H8C2        -2.8750     3.1220    -2.3100 h1         1 784       0.070700
     54 H1          -2.7450     1.9970     1.1900 h1         1 784       0.055700
     55 H10         -3.3030    -0.1320     2.3490 ha         1 784       0.120500
     56 H17         -4.1580    -2.4260     2.0850 ha         1 784       0.130500
     57 H25         -5.3030    -5.3800     0.2140 hn         1 784       0.377400
     58 H241        -2.7130    -4.4700    -1.5310 hn         1 784       0.459500
     59 H242        -3.6320    -5.8000    -0.9760 hn         1 784       0.459500
     60 H16         -2.8280    -2.4260    -2.0410 ha         1 784       0.130500
     61 H9          -1.9670    -0.1510    -1.7600 ha         1 784       0.120500
@<TRIPOS>BOND
     1     1     2 2   
     2     2     3 1   
     3     2    11 1   
     4     3     4 1   
     5     3    13 1   
     6     4     5 1   
     7     4    30 1   
     8     4    31 1   
     9     5     6 1   
    10     5    32 1   
    11     5    33 1   
    12     6     7 1   
    13     6    34 1   
    14     6    35 1   
    15     7     8 1   
    16     7     9 1   
    17     7    10 1   
    18     8    36 1   
    19     8    37 1   
    20     8    38 1   
    21     9    39 1   
    22     9    40 1   
    23     9    41 1   
    24    10    42 1   
    25    10    43 1   
    26    10    44 1   
    27    11    12 1   
    28    11    15 1   
    29    11    45 1   
    30    12    13 1   
    31    12    20 1   
    32    12    46 1   
    33    13    14 2   
    34    15    16 1   
    35    15    19 1   
    36    15    47 1   
    37    16    17 1   
    38    16    48 1   
    39    16    49 1   
    40    17    18 1   
    41    17    50 1   
    42    17    51 1   
    43    18    19 1   
    44    18    52 1   
    45    18    53 1   
    46    19    20 1   
    47    20    21 1   
    48    20    54 1   
    49    21    22 ar  
    50    21    29 ar  
    51    22    23 ar  
    52    22    55 1   
    53    23    24 ar  
    54    23    56 1   
    55    24    25 1   
    56    24    28 ar  
    57    25    26 2   
    58    25    27 1   
    59    26    57 1   
    60    27    58 1   
    61    27    59 1   
    62    28    29 ar  
    63    28    60 1   
    64    29    61 1   
@<TRIPOS>SUBSTRUCTURE
     1 784         1 TEMP              0 ****  ****    0 ROOT
