@<TRIPOS>MOLECULE
785
   35    37     1     0     0
SMALL
bcc


@<TRIPOS>ATOM
      1 H1           4.8120     0.4660    -0.0410 ca         1 785      -0.219000
      2 H2           4.9830    -0.9290     0.0350 ca         1 785      -0.121000
      3 H3           3.8980    -1.7780     0.1360 ca         1 785      -0.112000
      4 H4           2.6380    -1.1950     0.1520 ca         1 785       0.011000
      5 H5           2.4450     0.2030     0.0740 ca         1 785      -0.047000
      6 H6           3.5440     1.0440    -0.0200 ca         1 785      -0.047000
      7 H7           5.9930     1.3290    -0.1410 c2         1 785       0.354000
      8 H1           5.9810     2.5140     0.4250 n8         1 785      -0.335500
      9 H2           7.0520     0.9090    -0.7940 n8         1 785      -0.335500
     10 H3           1.3840    -1.7070     0.2330 na         1 785      -0.203000
     11 H4           1.1120     0.5000     0.1070 n2         1 785      -0.214000
     12 H8           0.5040    -0.6660     0.2060 cc         1 785       0.174000
     13 H9          -0.9220    -0.8880     0.2900 cd         1 785      -0.297000
     14 H10         -1.7720     0.2220     0.2610 cd         1 785       0.016000
     15 H11         -3.1310     0.0590     0.3480 cc         1 785      -0.117000
     16 H3          -3.9700     1.1810     0.3790 os         1 785      -0.249000
     17 H3X         -4.4240     1.6380    -0.7870 c3         1 785       0.555000
     18 HV          -5.1590     0.7410    -1.4530 f          1 785      -0.173333
     19 HW          -5.1890     2.6940    -0.5420 f          1 785      -0.173333
     20 HX          -3.4490     2.0190    -1.6180 f          1 785      -0.173333
     21 H12         -3.6850    -1.2160     0.4780 cc         1 785      -0.040000
     22 H13         -2.8660    -2.3170     0.5090 cd         1 785      -0.269000
     23 H14         -1.4400    -2.2270     0.4100 c          1 785       0.302000
     24 H6          -0.7070    -3.2600     0.4370 o          1 785      -0.494000
     25 HC2          5.9790    -1.3530     0.0490 ha         1 785       0.119000
     26 HC3          4.0340    -2.8480     0.2070 ha         1 785       0.153000
     27 HC6          3.4050     2.1150    -0.1070 ha         1 785       0.141000
     28 HH11         5.2330     2.7830     1.0430 ha         1 785       0.266500
     29 HH12         6.7430     3.1650     0.3210 ha         1 785       0.266500
     30 HH21         7.9090     1.4410    -0.8230 ha         1 785       0.266500
     31 HH22         7.0210     0.0650    -1.3420 ha         1 785       0.266500
     32 HN3          1.0340    -2.6630     0.3130 ha         1 785       0.326000
     33 H1          -1.3410     1.2130     0.1820 ha         1 785       0.142000
     34 HC4         -4.7580    -1.3360     0.5670 ha         1 785       0.127000
     35 HC5         -3.3040    -3.3040     0.6150 ha         1 785       0.132000
@<TRIPOS>BOND
     1     1     2 ar  
     2     1     6 ar  
     3     1     7 1   
     4     2     3 ar  
     5     2    25 1   
     6     3     4 ar  
     7     3    26 1   
     8     4     5 ar  
     9     4    10 2   
    10     5     6 ar  
    11     5    11 2   
    12     6    27 1   
    13     7     8 2   
    14     7     9 1   
    15     8    28 1   
    16     8    29 1   
    17     9    30 1   
    18     9    31 1   
    19    10    12 1   
    20    10    32 1   
    21    11    12 1   
    22    12    13 2   
    23    13    14 1   
    24    13    23 1   
    25    14    15 2   
    26    14    33 1   
    27    15    16 1   
    28    15    21 1   
    29    16    17 1   
    30    17    18 1   
    31    17    19 1   
    32    17    20 1   
    33    21    22 2   
    34    21    34 1   
    35    22    23 1   
    36    22    35 1   
    37    23    24 2   
@<TRIPOS>SUBSTRUCTURE
     1 785         1 TEMP              0 ****  ****    0 ROOT
