@<TRIPOS>MOLECULE
785
   35    37     1     0     0
SMALL
No Charge or Current Charge


@<TRIPOS>ATOM
      1 C1           4.9850     0.4680     0.0850 ca         1 785      -0.302900
      2 C2           5.0820    -0.9460     0.2300 ca         1 785      -0.103000
      3 C3           3.9270    -1.7540     0.2740 ca         1 785      -0.094000
      4 C4           2.6840    -1.1240     0.1690 ca         1 785       0.011000
      5 C5           2.5670     0.2510     0.0260 ca         1 785      -0.047000
      6 C6           3.7020     1.0700    -0.0190 ca         1 785      -0.029000
      7 C7           6.2130     1.3090     0.0390 ce         1 785       0.531400
      8 N1           6.1830     2.5780     0.5460 nv         1 785      -0.590200
      9 N2           7.3570     0.8030    -0.5100 nv         1 785      -0.574300
     10 N3           1.4180    -1.6750     0.1820 na         1 785      -0.275900
     11 N4           1.2280     0.6030    -0.0570 nc         1 785      -0.354600
     12 C8           0.5710    -0.5990     0.0420 cc         1 785       0.287500
     13 C9          -0.8000    -0.8410     0.0190 cd         1 785      -0.316200
     14 C10         -1.6280     0.3380    -0.1300 cd         1 785      -0.034000
     15 C11         -2.9980     0.1680    -0.1600 cc         1 785      -0.072900
     16 O3          -3.6760     1.3600    -0.3050 os         1 785      -0.388100
     17 C3X         -5.1160     1.4640    -0.3660 c3         1 785       0.500000
     18 FV          -5.7090     1.0050     0.7610 f          1 785      -0.123333
     19 FW          -5.4950     2.7530    -0.5110 f          1 785      -0.123333
     20 FX          -5.6330     0.7830    -1.4160 f          1 785      -0.123333
     21 C12         -3.6420    -1.1160    -0.0520 cc         1 785      -0.090000
     22 C13         -2.8640    -2.2450     0.0900 cd         1 785      -0.338200
     23 C14         -1.3950    -2.2050     0.1370 c          1 785       0.579500
     24 O6          -0.7510    -3.2420     0.2650 o          1 785      -0.733100
     25 HC2          6.0550    -1.4270     0.3230 ha         1 785       0.101000
     26 HC3          4.0010    -2.8330     0.3880 ha         1 785       0.135000
     27 HC6          3.5850     2.1450    -0.1450 ha         1 785       0.123000
     28 HH11         5.3980     2.8240     1.1330 hn         1 785       0.366500
     29 HH12         7.0610     3.0500     0.7130 hn         1 785       0.366500
     30 HH21         8.1020     1.4450    -0.7430 hn         1 785       0.366500
     31 HH22         7.2810    -0.0500    -1.0460 hn         1 785       0.366500
     32 HN3          1.1280    -2.6450     0.2700 hn         1 785       0.426000
     33 H1          -1.2090     1.3380    -0.2170 ha         1 785       0.192000
     34 HC4         -4.7240    -1.2050    -0.0810 ha         1 785       0.177000
     35 HC5         -3.2990    -3.2330     0.1750 ha         1 785       0.182000
@<TRIPOS>BOND
     1     1     2 ar  
     2     1     6 ar  
     3     1     7 1   
     4     2     3 ar  
     5     2    25 1   
     6     3     4 ar  
     7     3    26 1   
     8     4     5 ar  
     9     4    10 2   
    10     5     6 ar  
    11     5    11 2   
    12     6    27 1   
    13     7     8 2   
    14     7     9 1   
    15     8    28 1   
    16     8    29 1   
    17     9    30 1   
    18     9    31 1   
    19    10    12 1   
    20    10    32 1   
    21    11    12 1   
    22    12    13 2   
    23    13    14 1   
    24    13    23 1   
    25    14    15 2   
    26    14    33 1   
    27    15    16 1   
    28    15    21 1   
    29    16    17 1   
    30    17    18 1   
    31    17    19 1   
    32    17    20 1   
    33    21    22 2   
    34    21    34 1   
    35    22    23 1   
    36    22    35 1   
    37    23    24 2   
@<TRIPOS>SUBSTRUCTURE
     1 785         1 TEMP              0 ****  ****    0 ROOT
