@<TRIPOS>MOLECULE
786
   68    71     1     0     0
SMALL
No Charge or Current Charge


@<TRIPOS>ATOM
      1 C1          -0.2170    -0.9600    -0.1960 c5         1 786       0.106000
      2 N2           1.1550    -0.6050    -0.6260 n          1 786      -0.387800
      3 C3           2.2000    -1.4720    -0.0130 c5         1 786       0.067400
      4 C4           1.3950    -2.1360     1.1420 c5         1 786      -0.081400
      5 C5           0.0080    -2.3340     0.4850 c5         1 786      -0.094400
      6 C6           1.4430     0.2820    -1.6870 c          1 786       0.590100
      7 O7           2.5380     0.2560    -2.2430 o          1 786      -0.621100
      8 C8           0.3540     1.3040    -2.1450 c3         1 786       0.073300
      9 C9           0.0480     2.3680    -1.0490 c3         1 786       0.076300
     10 C10         -1.3800     2.9670    -1.2370 c          1 786       0.578100
     11 O11          0.7100     1.9510    -3.3980 oh         1 786      -0.647000
     12 O12         -1.6300     3.8770    -2.0180 o          1 786      -0.597100
     13 N13         -2.3490     2.4230    -0.4180 ns         1 786      -0.497900
     14 O14          1.0830     3.3840    -1.0400 oh         1 786      -0.636000
     15 C15         -3.7560     2.8170    -0.4090 c3         1 786       0.161000
     16 C16         -4.6060     1.6590     0.1070 ca         1 786      -0.110300
     17 C17         -5.4890     0.9910    -0.7640 ca         1 786      -0.083000
     18 C18         -6.2660    -0.0860    -0.3040 ca         1 786      -0.117500
     19 C19         -6.1690    -0.5200     1.0350 ca         1 786       0.030800
     20 C20         -5.2820     0.1470     1.9050 ca         1 786      -0.117500
     21 C21         -4.5060     1.2250     1.4450 ca         1 786      -0.083000
     22 N22         -6.9370    -1.5990     1.4920 na         1 786       0.221000
     23 C23          3.4350    -0.7440     0.5360 cc         1 786       0.484300
     24 N24         -8.2690    -1.7020     1.1500 nc         1 786      -0.515800
     25 C25         -8.6210    -2.7980     1.8000 cd         1 786       0.247900
     26 C26         -7.5540    -3.3630     2.5370 cd         1 786      -0.223000
     27 C27         -6.4500    -2.5800     2.3450 cc         1 786      -0.162000
     28 N28          3.2620     0.4880     1.1310 nc         1 786      -0.757000
     29 C29          4.4210     0.9570     1.4980 cd         1 786       0.749300
     30 S30          5.8420    -0.0250     1.1750 ss         1 786       0.013600
     31 C31          4.7340    -1.2010     0.4770 cd         1 786      -0.496500
     32 N32          4.3990     2.1690     2.0830 nu         1 786      -0.912100
     33 C33          5.5640     3.0200     2.3670 c3         1 786       0.209100
     34 C34         -3.9680     4.1130     0.3990 c3         1 786      -0.106100
     35 S35          5.2990    -2.7630    -0.1230 sy         1 786       1.125500
     36 O36          6.6080    -3.0400     0.4780 o          1 786      -0.540000
     37 O37          4.2100    -3.7410    -0.0390 o          1 786      -0.540000
     38 C38          5.5980    -2.4620    -1.8570 c3         1 786      -0.336100
     39 H1          -0.6040    -0.2240     0.5200 h1         1 786       0.047200
     40 H1A         -0.9200    -1.0410    -1.0360 h1         1 786       0.047200
     41 H3           2.4960    -2.2140    -0.7620 h1         1 786       0.091700
     42 H4           1.8430    -3.0780     1.4780 hc         1 786       0.072200
     43 H4A          1.3230    -1.4780     2.0170 hc         1 786       0.072200
     44 H5          -0.7780    -2.5760     1.2090 hc         1 786       0.059200
     45 H5A          0.0330    -3.1420    -0.2560 hc         1 786       0.059200
     46 H8          -0.5600     0.7160    -2.3000 h1         1 786       0.071700
     47 H9           0.0400     1.8650    -0.0730 h1         1 786       0.077700
     48 HO11         1.6110     1.6160    -3.6270 ho         1 786       0.481000
     49 HN13        -2.0630     1.6890     0.2170 hn         1 786       0.308500
     50 HO14         1.0850     3.7700    -1.9470 ho         1 786       0.476000
     51 H15         -4.0540     3.0240    -1.4470 h1         1 786       0.088700
     52 H17         -5.5760     1.3050    -1.8020 ha         1 786       0.120500
     53 H18         -6.9400    -0.5900    -0.9930 ha         1 786       0.134500
     54 H20         -5.1950    -0.1650     2.9430 ha         1 786       0.134500
     55 H21         -3.8260     1.7210     2.1340 ha         1 786       0.120500
     56 H25         -9.6410    -3.1550     1.7250 h4         1 786       0.041100
     57 H26         -7.6080    -4.2590     3.1470 ha         1 786       0.148000
     58 H27         -5.4300    -2.6320     2.7060 h4         1 786       0.155000
     59 HN32         3.4750     2.5890     2.0300 hn         1 786       0.515000
     60 H33          6.2340     2.5290     3.0860 h1         1 786       0.051367
     61 H33A         6.1290     3.2220     1.4470 h1         1 786       0.051367
     62 H33B         5.2450     3.9800     2.7940 h1         1 786       0.051367
     63 H34         -3.6240     3.9990     1.4340 hc         1 786       0.045367
     64 H34A        -3.4150     4.9460    -0.0520 hc         1 786       0.045367
     65 H34B        -5.0310     4.3820     0.4160 hc         1 786       0.045367
     66 H38          6.3520    -1.6730    -1.9390 h1         1 786       0.107033
     67 H38A         5.9570    -3.3930    -2.3070 h1         1 786       0.107033
     68 H38B         4.6550    -2.1450    -2.3160 h1         1 786       0.107033
@<TRIPOS>BOND
     1     1     2 1   
     2     1     5 1   
     3     1    39 1   
     4     1    40 1   
     5     2     3 1   
     6     2     6 1   
     7     3     4 1   
     8     3    23 1   
     9     3    41 1   
    10     4     5 1   
    11     4    42 1   
    12     4    43 1   
    13     5    44 1   
    14     5    45 1   
    15     6     7 2   
    16     6     8 1   
    17     8     9 1   
    18     8    11 1   
    19     8    46 1   
    20     9    10 1   
    21     9    14 1   
    22     9    47 1   
    23    10    12 2   
    24    10    13 1   
    25    11    48 1   
    26    13    15 1   
    27    13    49 1   
    28    14    50 1   
    29    15    16 1   
    30    15    34 1   
    31    15    51 1   
    32    16    17 ar  
    33    16    21 ar  
    34    17    18 ar  
    35    17    52 1   
    36    18    19 ar  
    37    18    53 1   
    38    19    20 ar  
    39    19    22 1   
    40    20    21 ar  
    41    20    54 1   
    42    21    55 1   
    43    22    24 1   
    44    22    27 1   
    45    23    28 1   
    46    23    31 2   
    47    24    25 2   
    48    25    26 1   
    49    25    56 1   
    50    26    27 2   
    51    26    57 1   
    52    27    58 1   
    53    28    29 2   
    54    29    30 1   
    55    29    32 1   
    56    30    31 1   
    57    31    35 1   
    58    32    33 1   
    59    32    59 1   
    60    33    60 1   
    61    33    61 1   
    62    33    62 1   
    63    34    63 1   
    64    34    64 1   
    65    34    65 1   
    66    35    36 2   
    67    35    37 2   
    68    35    38 1   
    69    38    66 1   
    70    38    67 1   
    71    38    68 1   
@<TRIPOS>SUBSTRUCTURE
     1 786         1 TEMP              0 ****  ****    0 ROOT
