@<TRIPOS>MOLECULE
786
   68    71     1     0     0
SMALL
bcc


@<TRIPOS>ATOM
      1 C1           0.5700    -0.7380     1.8060 c5         1 786       0.106000
      2 N2           1.4130    -0.7570     0.6170 n          1 786      -0.454800
      3 C3           2.6750    -1.4560     0.8410 c5         1 786       0.067400
      4 C4           2.6140    -1.8440     2.3260 c5         1 786      -0.081400
      5 C5           1.1210    -1.8950     2.6260 c5         1 786      -0.094400
      6 C6           1.1100    -0.3100    -0.6030 c          1 786       0.657100
      7 O7           1.8420    -0.4830    -1.5710 o          1 786      -0.621100
      8 C8          -0.1950     0.4580    -0.7980 c3         1 786       0.050100
      9 C9          -0.0660     1.8630    -0.1700 c3         1 786       0.053100
     10 C10         -1.3490     2.6420    -0.4670 c          1 786       0.645100
     11 O11         -0.4720     0.5590    -2.1600 oh         1 786      -0.584800
     12 O12         -1.3520     3.5270    -1.3100 o          1 786      -0.597100
     13 N13         -2.4270     2.2460     0.2170 ns         1 786      -0.564900
     14 O14          1.0420     2.5420    -0.6670 oh         1 786      -0.573800
     15 C15         -3.7620     2.7990     0.0290 c3         1 786       0.161000
     16 C16         -4.7690     1.6730     0.0800 ca         1 786      -0.110300
     17 C17         -5.3400     1.1870    -1.0910 ca         1 786      -0.101000
     18 C18         -6.2350     0.1290    -1.0740 ca         1 786      -0.135500
     19 C19         -6.5770    -0.4610     0.1370 ca         1 786       0.030800
     20 C20         -6.0260     0.0190     1.3200 ca         1 786      -0.135500
     21 C21         -5.1270     1.0720     1.2830 ca         1 786      -0.101000
     22 N22         -7.4810    -1.5400     0.1630 na         1 786       0.170300
     23 C23          3.8470    -0.5670     0.5450 cc         1 786       0.549600
     24 N24         -8.3340    -1.7300    -0.8470 nc         1 786      -0.515800
     25 C25         -9.0200    -2.8070    -0.5280 cd         1 786       0.313200
     26 C26         -8.6100    -3.3310     0.7120 cd         1 786      -0.306300
     27 C27         -7.6140    -2.4860     1.1250 cc         1 786      -0.129300
     28 N28          3.7960     0.7070     0.9820 nc         1 786      -0.757000
     29 C29          4.8810     1.3660     0.6540 cd         1 786       0.749300
     30 S30          6.0840     0.4340    -0.1960 ss         1 786      -0.131300
     31 C31          5.0010    -0.9250    -0.0940 cd         1 786      -0.416900
     32 N32          5.0990     2.6430     0.9470 nu         1 786      -0.856900
     33 C33          6.2970     3.3540     0.5780 c3         1 786       0.209100
     34 C34         -4.0480     3.9140     1.0300 c3         1 786      -0.106100
     35 S35          5.4250    -2.3920    -0.9150 sy         1 786       1.156300
     36 O36          6.8770    -2.3620    -1.0860 o          1 786      -0.610800
     37 O37          4.8180    -3.5280    -0.2260 o          1 786      -0.610800
     38 C38          4.6740    -2.2580    -2.5210 c3         1 786      -0.225300
     39 H1           0.6720     0.2080     2.3460 h1         1 786       0.047200
     40 H1A         -0.4810    -0.8760     1.5540 h1         1 786       0.047200
     41 H3           2.7070    -2.3490     0.2180 h1         1 786       0.091700
     42 H4           3.1270    -2.7860     2.5100 hc         1 786       0.072200
     43 H4A          3.0910    -1.0770     2.9370 hc         1 786       0.072200
     44 H5           0.9000    -1.7880     3.6860 hc         1 786       0.059200
     45 H5A          0.6880    -2.8360     2.2820 hc         1 786       0.059200
     46 H8          -1.0160    -0.0800    -0.3100 h1         1 786       0.071700
     47 H9           0.0510     1.7660     0.9150 h1         1 786       0.077700
     48 HO11         0.3560     0.3720    -2.6270 ho         1 786       0.442000
     49 HN13        -2.3060     1.5700     0.9570 hn         1 786       0.308500
     50 HO14         0.7570     3.0200    -1.4570 ho         1 786       0.437000
     51 H15         -3.7830     3.2260    -0.9740 h1         1 786       0.088700
     52 H17         -5.0790     1.6350    -2.0420 ha         1 786       0.138500
     53 H18         -6.6600    -0.2360    -1.9980 ha         1 786       0.152500
     54 H20         -6.2990    -0.4070     2.2760 ha         1 786       0.152500
     55 H21         -4.7160     1.4280     2.2200 ha         1 786       0.138500
     56 H25         -9.7890    -3.1760    -1.1890 h4         1 786       0.041100
     57 H26         -8.9840    -4.2010     1.2240 ha         1 786       0.166000
     58 H27         -6.9920    -2.5050     2.0040 h4         1 786       0.173000
     59 HN32         4.3800     3.1180     1.4680 hn         1 786       0.459800
     60 H33          7.1840     2.9260     1.0520 h1         1 786       0.051367
     61 H33A         6.4440     3.3530    -0.5040 h1         1 786       0.051367
     62 H33B         6.2020     4.3850     0.9040 h1         1 786       0.051367
     63 H34         -3.9950     3.5580     2.0590 hc         1 786       0.045367
     64 H34A        -3.3210     4.7180     0.9140 hc         1 786       0.045367
     65 H34B        -5.0420     4.3270     0.8640 hc         1 786       0.045367
     66 H38          5.0930    -1.3970    -3.0370 h1         1 786       0.107033
     67 H38A         4.9000    -3.1710    -3.0710 h1         1 786       0.107033
     68 H38B         3.6010    -2.1350    -2.4030 h1         1 786       0.107033
@<TRIPOS>BOND
     1     1     2 1   
     2     1     5 1   
     3     1    39 1   
     4     1    40 1   
     5     2     3 1   
     6     2     6 1   
     7     3     4 1   
     8     3    23 1   
     9     3    41 1   
    10     4     5 1   
    11     4    42 1   
    12     4    43 1   
    13     5    44 1   
    14     5    45 1   
    15     6     7 2   
    16     6     8 1   
    17     8     9 1   
    18     8    11 1   
    19     8    46 1   
    20     9    10 1   
    21     9    14 1   
    22     9    47 1   
    23    10    12 2   
    24    10    13 1   
    25    11    48 1   
    26    13    15 1   
    27    13    49 1   
    28    14    50 1   
    29    15    16 1   
    30    15    34 1   
    31    15    51 1   
    32    16    17 ar  
    33    16    21 ar  
    34    17    18 ar  
    35    17    52 1   
    36    18    19 ar  
    37    18    53 1   
    38    19    20 ar  
    39    19    22 1   
    40    20    21 ar  
    41    20    54 1   
    42    21    55 1   
    43    22    24 1   
    44    22    27 1   
    45    23    28 1   
    46    23    31 2   
    47    24    25 2   
    48    25    26 1   
    49    25    56 1   
    50    26    27 2   
    51    26    57 1   
    52    27    58 1   
    53    28    29 2   
    54    29    30 1   
    55    29    32 1   
    56    30    31 1   
    57    31    35 1   
    58    32    33 1   
    59    32    59 1   
    60    33    60 1   
    61    33    61 1   
    62    33    62 1   
    63    34    63 1   
    64    34    64 1   
    65    34    65 1   
    66    35    36 2   
    67    35    37 2   
    68    35    38 1   
    69    38    66 1   
    70    38    67 1   
    71    38    68 1   
@<TRIPOS>SUBSTRUCTURE
     1 786         1 TEMP              0 ****  ****    0 ROOT
