@<TRIPOS>MOLECULE
787
   21    21     1     0     0
SMALL
No Charge or Current Charge


@<TRIPOS>ATOM
      1 C1          17.8830    24.2640    19.0030 ca         1 787      -0.286000
      2 C2          16.9520    24.5150    17.9840 ca         1 787      -0.142000
      3 C3          16.7930    25.8180    17.4790 ca         1 787      -0.125000
      4 C4          17.5640    26.8890    17.9870 ca         1 787       0.172700
      5 C5          18.4970    26.6180    19.0140 ca         1 787      -0.125000
      6 C6          18.6550    25.3150    19.5180 ca         1 787      -0.142000
      7 C7          17.4140    28.3060    17.4650 c3         1 787      -0.607400
      8 P8          15.7480    28.9560    17.5120 p5         1 787       1.350000
      9 P9          18.0680    28.5310    15.8170 p5         1 787       1.350000
     10 O11         17.9020    29.9240    15.3120 o          1 787      -0.957667
     11 O12         17.4940    27.5490    14.8510 o          1 787      -0.957667
     12 O13         19.5290    28.2480    15.9270 o          1 787      -0.957667
     13 O14         15.7860    30.4450    17.6090 o          1 787      -0.957667
     14 O15         15.1410    28.4610    18.7830 o          1 787      -0.957667
     15 O16         14.8950    28.5240    16.3690 o          1 787      -0.957667
     16 H1          18.0050    23.2580    19.3920 ha         1 787       0.007000
     17 H2          16.3530    23.7020    17.5830 ha         1 787       0.018500
     18 H3          16.0690    25.9960    16.6900 ha         1 787       0.115500
     19 H5          19.1030    27.4230    19.4210 ha         1 787       0.115500
     20 H6          19.3770    25.1230    20.3070 ha         1 787       0.018500
     21 H7          17.9910    28.9900    18.0930 hc         1 787       0.026700
@<TRIPOS>BOND
     1     1     2 ar  
     2     1     6 ar  
     3     1    16 1   
     4     2     3 ar  
     5     2    17 1   
     6     3     4 ar  
     7     3    18 1   
     8     4     5 ar  
     9     4     7 1   
    10     5     6 ar  
    11     5    19 1   
    12     6    20 1   
    13     7     8 1   
    14     7     9 1   
    15     7    21 1   
    16     8    13 1   
    17     8    14 1   
    18     8    15 1   
    19     9    10 1   
    20     9    11 1   
    21     9    12 1   
@<TRIPOS>SUBSTRUCTURE
     1 787         1 TEMP              0 ****  ****    0 ROOT
