@<TRIPOS>MOLECULE
787
   21    21     1     0     0
SMALL
abcg2


@<TRIPOS>ATOM
      1 C1          17.8930    24.2980    18.9740 ca         1 787      -0.286000
      2 C2          16.9770    24.5380    17.9510 ca         1 787      -0.142000
      3 C3          16.7970    25.8220    17.4520 ca         1 787      -0.125000
      4 C4          17.5250    26.9130    17.9480 ca         1 787       0.172700
      5 C5          18.4370    26.6500    18.9780 ca         1 787      -0.125000
      6 C6          18.6200    25.3680    19.4880 ca         1 787      -0.142000
      7 C7          17.3550    28.3000    17.4000 c3         1 787      -0.607400
      8 P8          15.6130    28.9870    17.6620 p5         1 787       1.350000
      9 P9          18.2160    28.4430    15.7180 p5         1 787       1.350000
     10 O11         18.0230    29.8800    15.2140 o          1 787      -0.957667
     11 O12         17.6050    27.3980    14.7750 o          1 787      -0.957667
     12 O13         19.6910    28.1420    16.0410 o          1 787      -0.957667
     13 O14         15.7910    30.5110    17.7430 o          1 787      -0.957667
     14 O15         15.1480    28.3990    19.0060 o          1 787      -0.957667
     15 O16         14.7100    28.5540    16.4970 o          1 787      -0.957667
     16 H1          18.0320    23.2970    19.3660 ha         1 787       0.007000
     17 H2          16.4010    23.7180    17.5390 ha         1 787       0.018500
     18 H3          16.0810    25.9960    16.6620 ha         1 787       0.115500
     19 H5          19.0150    27.4730    19.3850 ha         1 787       0.115500
     20 H6          19.3340    25.2040    20.2880 ha         1 787       0.018500
     21 H7          17.9560    28.9640    18.0300 hc         1 787       0.026700
@<TRIPOS>BOND
     1     1     2 ar  
     2     1     6 ar  
     3     1    16 1   
     4     2     3 ar  
     5     2    17 1   
     6     3     4 ar  
     7     3    18 1   
     8     4     5 ar  
     9     4     7 1   
    10     5     6 ar  
    11     5    19 1   
    12     6    20 1   
    13     7     8 1   
    14     7     9 1   
    15     7    21 1   
    16     8    13 1   
    17     8    14 1   
    18     8    15 1   
    19     9    10 1   
    20     9    11 1   
    21     9    12 1   
@<TRIPOS>SUBSTRUCTURE
     1 787         1 TEMP              0 ****  ****    0 ROOT
