@<TRIPOS>MOLECULE
788
   49    53     1     0     0
SMALL
No Charge or Current Charge


@<TRIPOS>ATOM
      1 O23          1.5030    -1.8130     0.7000 o          1 788      -0.593100
      2 C14          1.7560    -0.6490     0.4200 c          1 788       0.614700
      3 N15          3.0570    -0.2210     0.2870 ns         1 788      -0.500900
      4 C16          4.2280    -1.0750     0.4590 c3         1 788       0.143300
      5 C17          5.5100    -0.2890     0.2380 ca         1 788      -0.112300
      6 C22          6.1380     0.3640     1.3170 ca         1 788      -0.099500
      7 C21          7.3210     1.0960     1.1110 ca         1 788      -0.110000
      8 C20          7.8810     1.1810    -0.1740 ca         1 788      -0.104000
      9 C19          7.2570     0.5340    -1.2550 ca         1 788      -0.110000
     10 C18          6.0750    -0.1980    -1.0500 ca         1 788      -0.099500
     11 C3           0.6690     0.3870     0.2030 ca         1 788      -0.133600
     12 C2           0.9620     1.7350    -0.1080 ca         1 788      -0.096000
     13 C4          -0.6850     0.0050     0.3200 ca         1 788      -0.064000
     14 C5          -1.7310     0.9320     0.1020 ca         1 788      -0.054000
     15 N10         -3.0840     0.5990     0.1740 na         1 788       0.023200
     16 C11         -3.7280    -0.6200     0.2480 cc         1 788       0.401400
     17 C25         -3.2030    -1.9570    -0.0580 ca         1 788      -0.121900
     18 C30         -3.6350    -3.0730     0.6910 ca         1 788      -0.076500
     19 C29         -3.1840    -4.3650     0.3690 ca         1 788      -0.109000
     20 C28         -2.3200    -4.5590    -0.7200 ca         1 788      -0.088000
     21 C27         -1.9180    -3.4610    -1.4980 ca         1 788      -0.109000
     22 C26         -2.3680    -2.1690    -1.1780 ca         1 788      -0.076500
     23 N12         -5.0080    -0.3620     0.4930 nd         1 788      -0.358700
     24 N13         -5.1940     1.0120     0.4880 nd         1 788      -0.062000
     25 C9          -4.0200     1.5690     0.2530 cc         1 788      -0.179000
     26 C8          -3.6320     2.9370     0.0500 cc         1 788       0.447300
     27 C24         -4.7150     3.9780     0.0860 c3         1 788      -0.148400
     28 N7          -2.3800     3.3430    -0.1870 nd         1 788      -0.666000
     29 C6          -1.4220     2.3000    -0.1240 ca         1 788       0.253000
     30 C1          -0.0730     2.6720    -0.2520 ca         1 788      -0.068000
     31 H15          3.2050     0.7510     0.0540 hn         1 788       0.318500
     32 H161         4.2190    -1.4980     1.4730 h1         1 788       0.065700
     33 H162         4.1730    -1.9080    -0.2550 h1         1 788       0.065700
     34 H22          5.7090     0.3050     2.3160 ha         1 788       0.114000
     35 H18          5.5970    -0.6940    -1.8920 ha         1 788       0.114000
     36 H21          7.8020     1.5980     1.9480 ha         1 788       0.114500
     37 H20          8.7960     1.7480    -0.3330 ha         1 788       0.115000
     38 H19          7.6890     0.6010    -2.2510 ha         1 788       0.114500
     39 H2           1.9860     2.0840    -0.2110 ha         1 788       0.125000
     40 H4          -0.9080    -1.0200     0.6010 ha         1 788       0.159000
     41 H1           0.1740     3.7120    -0.4450 ha         1 788       0.141000
     42 H30         -4.3110    -2.9370     1.5320 ha         1 788       0.123500
     43 H26         -2.0680    -1.3310    -1.8060 ha         1 788       0.123500
     44 H29         -3.5100    -5.2170     0.9630 ha         1 788       0.120000
     45 H28         -1.9730    -5.5600    -0.9700 ha         1 788       0.117000
     46 H27         -1.2650    -3.6120    -2.3540 ha         1 788       0.120000
     47 H241        -5.2240     3.9700     1.0570 hc         1 788       0.068700
     48 H242        -4.3140     4.9850    -0.0750 hc         1 788       0.068700
     49 H243        -5.4620     3.7850    -0.6920 hc         1 788       0.068700
@<TRIPOS>BOND
     1     1     2 2   
     2     2     3 1   
     3     2    11 1   
     4     3     4 1   
     5     3    31 1   
     6     4     5 1   
     7     4    32 1   
     8     4    33 1   
     9     5     6 ar  
    10     5    10 ar  
    11     6     7 ar  
    12     6    34 1   
    13     7     8 ar  
    14     7    36 1   
    15     8     9 ar  
    16     8    37 1   
    17     9    10 ar  
    18     9    38 1   
    19    10    35 1   
    20    11    12 ar  
    21    11    13 ar  
    22    12    30 ar  
    23    12    39 1   
    24    13    14 ar  
    25    13    40 1   
    26    14    15 1   
    27    14    29 ar  
    28    15    16 1   
    29    15    25 1   
    30    16    17 1   
    31    16    23 2   
    32    17    18 ar  
    33    17    22 ar  
    34    18    19 ar  
    35    18    42 1   
    36    19    20 ar  
    37    19    44 1   
    38    20    21 ar  
    39    20    45 1   
    40    21    22 ar  
    41    21    46 1   
    42    22    43 1   
    43    23    24 1   
    44    24    25 2   
    45    25    26 1   
    46    26    27 1   
    47    26    28 2   
    48    27    47 1   
    49    27    48 1   
    50    27    49 1   
    51    28    29 1   
    52    29    30 ar  
    53    30    41 1   
@<TRIPOS>SUBSTRUCTURE
     1 788         1 TEMP              0 ****  ****    0 ROOT
