@<TRIPOS>MOLECULE
788
   49    53     1     0     0
SMALL
abcg2


@<TRIPOS>ATOM
      1 O23          1.6350    -1.6570    -0.2460 o          1 788      -0.593100
      2 C14          1.8000    -0.5350     0.2080 c          1 788       0.614700
      3 N15          2.9290    -0.1300     0.8140 ns         1 788      -0.500900
      4 C16          4.1100    -0.9480     0.9570 c3         1 788       0.143300
      5 C17          5.3490    -0.2540     0.4500 ca         1 788      -0.112300
      6 C22          6.5320    -0.3210     1.1780 ca         1 788      -0.099500
      7 C21          7.6910     0.2850     0.7080 ca         1 788      -0.110000
      8 C20          7.6750     0.9750    -0.4960 ca         1 788      -0.104000
      9 C19          6.4950     1.0500    -1.2280 ca         1 788      -0.110000
     10 C18          5.3410     0.4400    -0.7580 ca         1 788      -0.099500
     11 C3           0.7160     0.4950     0.1140 ca         1 788      -0.133600
     12 C2           0.9810     1.8670     0.0470 ca         1 788      -0.096000
     13 C4          -0.5890     0.0370     0.0490 ca         1 788      -0.064000
     14 C5          -1.6360     0.9430    -0.0580 ca         1 788      -0.054000
     15 N10         -2.9810     0.5770    -0.1110 na         1 788       0.023200
     16 C11         -3.6610    -0.6060    -0.1060 cc         1 788       0.401400
     17 C25         -3.1020    -1.9590    -0.1750 ca         1 788      -0.121900
     18 C30         -3.3550    -2.8580     0.8570 ca         1 788      -0.076500
     19 C29         -2.8690    -4.1560     0.7790 ca         1 788      -0.109000
     20 C28         -2.1340    -4.5590    -0.3270 ca         1 788      -0.088000
     21 C27         -1.8900    -3.6670    -1.3630 ca         1 788      -0.109000
     22 C26         -2.3760    -2.3710    -1.2920 ca         1 788      -0.076500
     23 N12         -4.9470    -0.3540    -0.0700 nd         1 788      -0.358700
     24 N13         -5.1380     0.9720    -0.0640 nd         1 788      -0.062000
     25 C9          -3.9590     1.5330    -0.0940 cc         1 788      -0.179000
     26 C8          -3.6110     2.9260    -0.1320 cc         1 788       0.447300
     27 C24         -4.7040     3.9350    -0.1580 c3         1 788      -0.148400
     28 N7          -2.3750     3.2850    -0.1470 nd         1 788      -0.666000
     29 C6          -1.3850     2.3270    -0.0930 ca         1 788       0.253000
     30 C1          -0.0580     2.7640    -0.0550 ca         1 788      -0.068000
     31 H15          2.9380     0.7600     1.2870 hn         1 788       0.318500
     32 H161         4.2470    -1.2290     2.0040 h1         1 788       0.065700
     33 H162         3.9460    -1.8740     0.4050 h1         1 788       0.065700
     34 H22          6.5490    -0.8510     2.1230 ha         1 788       0.114000
     35 H18          4.4280     0.5070    -1.3370 ha         1 788       0.114000
     36 H21          8.6030     0.2220     1.2870 ha         1 788       0.114500
     37 H20          8.5740     1.4540    -0.8620 ha         1 788       0.115000
     38 H19          6.4740     1.5870    -2.1680 ha         1 788       0.114500
     39 H2           1.9960     2.2400     0.0530 ha         1 788       0.125000
     40 H4          -0.7690    -1.0250     0.0980 ha         1 788       0.159000
     41 H1           0.1310     3.8280    -0.1050 ha         1 788       0.141000
     42 H30         -3.9250    -2.5410     1.7210 ha         1 788       0.123500
     43 H26         -2.1910    -1.6780    -2.1040 ha         1 788       0.123500
     44 H29         -3.0640    -4.8510     1.5850 ha         1 788       0.120000
     45 H28         -1.7540    -5.5710    -0.3840 ha         1 788       0.117000
     46 H27         -1.3260    -3.9810    -2.2310 ha         1 788       0.120000
     47 H241        -5.3390     3.8350     0.7230 hc         1 788       0.068700
     48 H242        -4.2890     4.9390    -0.1850 hc         1 788       0.068700
     49 H243        -5.3430     3.7890    -1.0300 hc         1 788       0.068700
@<TRIPOS>BOND
     1     1     2 2   
     2     2     3 1   
     3     2    11 1   
     4     3     4 1   
     5     3    31 1   
     6     4     5 1   
     7     4    32 1   
     8     4    33 1   
     9     5     6 ar  
    10     5    10 ar  
    11     6     7 ar  
    12     6    34 1   
    13     7     8 ar  
    14     7    36 1   
    15     8     9 ar  
    16     8    37 1   
    17     9    10 ar  
    18     9    38 1   
    19    10    35 1   
    20    11    12 ar  
    21    11    13 ar  
    22    12    30 ar  
    23    12    39 1   
    24    13    14 ar  
    25    13    40 1   
    26    14    15 1   
    27    14    29 ar  
    28    15    16 1   
    29    15    25 1   
    30    16    17 1   
    31    16    23 2   
    32    17    18 ar  
    33    17    22 ar  
    34    18    19 ar  
    35    18    42 1   
    36    19    20 ar  
    37    19    44 1   
    38    20    21 ar  
    39    20    45 1   
    40    21    22 ar  
    41    21    46 1   
    42    22    43 1   
    43    23    24 1   
    44    24    25 2   
    45    25    26 1   
    46    26    27 1   
    47    26    28 2   
    48    27    47 1   
    49    27    48 1   
    50    27    49 1   
    51    28    29 1   
    52    29    30 ar  
    53    30    41 1   
@<TRIPOS>SUBSTRUCTURE
     1 788         1 TEMP              0 ****  ****    0 ROOT
