@<TRIPOS>MOLECULE
789
   28    30     1     0     0
SMALL
abcg2


@<TRIPOS>ATOM
      1 C1          -4.4220     0.9360     0.1050 ca         1 789       0.142100
      2 C2          -3.2600     1.7280     0.1110 ca         1 789      -0.072000
      3 C3          -2.0530     1.0840     0.0490 ca         1 789      -0.143600
      4 C4          -1.9450    -0.3050    -0.0190 ca         1 789      -0.089800
      5 C5          -3.0790    -1.0830    -0.0240 ca         1 789      -0.032000
      6 C6          -4.3220    -0.4500     0.0390 ca         1 789      -0.198000
      7 C10         -0.6700     1.6430     0.0400 c          1 789       0.582900
      8 C11          0.2620     0.4730    -0.0330 cc         1 789      -0.098400
      9 C12         -0.5120    -0.6290    -0.0620 cd         1 789       0.024500
     10 C13          1.7140     0.6120    -0.0770 ca         1 789      -0.086800
     11 C15          2.3790     1.4130     0.8530 ca         1 789      -0.037500
     12 C16          3.7560     1.5500     0.8260 ca         1 789      -0.182000
     13 C17          4.5040     0.8920    -0.1490 ca         1 789       0.153100
     14 C18          3.8530     0.1010    -1.0940 ca         1 789      -0.182000
     15 C19          2.4770    -0.0320    -1.0540 ca         1 789      -0.037500
     16 O24          5.8430     0.9870    -0.2250 oh         1 789      -0.530100
     17 O25         -0.3590     2.8070     0.0740 o          1 789      -0.471100
     18 O26         -5.5970     1.5790     0.1690 oh         1 789      -0.525100
     19 BR29         0.0740    -2.3890    -0.0930 br         1 789      -0.039700
     20 H2          -3.3300     2.8080     0.1630 ha         1 789       0.148000
     21 H5          -3.0330    -2.1640    -0.0740 ha         1 789       0.131000
     22 H6          -5.2220    -1.0540     0.0340 ha         1 789       0.118000
     23 H15          1.8220     1.9190     1.6310 ha         1 789       0.121000
     24 H16          4.2480     2.1660     1.5690 ha         1 789       0.123500
     25 H18          4.4260    -0.4010    -1.8630 ha         1 789       0.123500
     26 H19          1.9880    -0.6310    -1.8120 ha         1 789       0.121000
     27 H24          6.1810     1.5550     0.4770 ho         1 789       0.467000
     28 H26         -6.3310     0.9540     0.1590 ho         1 789       0.470000
@<TRIPOS>BOND
     1     1     2 ar  
     2     1     6 ar  
     3     1    18 1   
     4     2     3 ar  
     5     2    20 1   
     6     3     4 ar  
     7     3     7 1   
     8     4     5 ar  
     9     4     9 1   
    10     5     6 ar  
    11     5    21 1   
    12     6    22 1   
    13     7     8 1   
    14     7    17 2   
    15     8     9 2   
    16     8    10 1   
    17     9    19 1   
    18    10    11 ar  
    19    10    15 ar  
    20    11    12 ar  
    21    11    23 1   
    22    12    13 ar  
    23    12    24 1   
    24    13    14 ar  
    25    13    16 1   
    26    14    15 ar  
    27    14    25 1   
    28    15    26 1   
    29    16    27 1   
    30    18    28 1   
@<TRIPOS>SUBSTRUCTURE
     1 789         1 TEMP              0 ****  ****    0 ROOT
