@<TRIPOS>MOLECULE
789
   28    30     1     0     0
SMALL
No Charge or Current Charge


@<TRIPOS>ATOM
      1 C1          -4.4490     0.9200     0.0850 ca         1 789       0.142100
      2 C2          -3.3190     1.7610     0.0450 ca         1 789      -0.072000
      3 C3          -2.0500     1.1620     0.0070 ca         1 789      -0.143600
      4 C4          -1.9000    -0.2180     0.0080 ca         1 789      -0.089800
      5 C5          -3.0130    -1.0710     0.0480 ca         1 789      -0.032000
      6 C6          -4.2980    -0.4870     0.0860 ca         1 789      -0.198000
      7 C10         -0.7010     1.7930    -0.0350 c          1 789       0.582900
      8 C11          0.2300     0.6430    -0.0680 cc         1 789      -0.098400
      9 C12         -0.4780    -0.5480    -0.0340 cd         1 789       0.024500
     10 C13          1.6920     0.6810    -0.0980 ca         1 789      -0.086800
     11 C15          2.3950     1.3790     0.9030 ca         1 789      -0.037500
     12 C16          3.8000     1.4320     0.8770 ca         1 789      -0.182000
     13 C17          4.5080     0.7940    -0.1530 ca         1 789       0.153100
     14 C18          3.8130     0.1070    -1.1590 ca         1 789      -0.182000
     15 C19          2.4090     0.0530    -1.1360 ca         1 789      -0.037500
     16 O24          5.8680     0.8410    -0.1860 oh         1 789      -0.530100
     17 O25         -0.4450     2.9910    -0.0390 o          1 789      -0.471100
     18 O26         -5.6970     1.4680     0.1230 oh         1 789      -0.525100
     19 Br29         0.2730    -2.2850     0.0230 br         1 789      -0.039700
     20 H2          -3.4290     2.8430     0.0450 ha         1 789       0.148000
     21 H5          -2.8900    -2.1520     0.0490 ha         1 789       0.131000
     22 H6          -5.1720    -1.1320     0.1170 ha         1 789       0.118000
     23 H15          1.8520     1.8760     1.7040 ha         1 789       0.121000
     24 H16          4.3290     1.9710     1.6600 ha         1 789       0.123500
     25 H18          4.3620    -0.3820    -1.9600 ha         1 789       0.123500
     26 H19          1.8780    -0.4740    -1.9260 ha         1 789       0.121000
     27 H24          6.1790     1.3590     0.5870 ho         1 789       0.467000
     28 H26         -6.3550     0.7410     0.1470 ho         1 789       0.470000
@<TRIPOS>BOND
     1     1     2 ar  
     2     1     6 ar  
     3     1    18 1   
     4     2     3 ar  
     5     2    20 1   
     6     3     4 ar  
     7     3     7 1   
     8     4     5 ar  
     9     4     9 1   
    10     5     6 ar  
    11     5    21 1   
    12     6    22 1   
    13     7     8 1   
    14     7    17 2   
    15     8     9 2   
    16     8    10 1   
    17     9    19 1   
    18    10    11 ar  
    19    10    15 ar  
    20    11    12 ar  
    21    11    23 1   
    22    12    13 ar  
    23    12    24 1   
    24    13    14 ar  
    25    13    16 1   
    26    14    15 ar  
    27    14    25 1   
    28    15    26 1   
    29    16    27 1   
    30    18    28 1   
@<TRIPOS>SUBSTRUCTURE
     1 789         1 TEMP              0 ****  ****    0 ROOT
