@<TRIPOS>MOLECULE
78A
   59    61     1     0     0
SMALL
bcc


@<TRIPOS>ATOM
      1 N3           3.7830    -0.2580    -2.0300 ns         1 78A      -0.562900
      2 C10          4.9860     0.5330    -1.8480 c3         1 78A       0.153300
      3 C11          4.8950     1.4370    -0.6440 ca         1 78A      -0.122300
      4 C16          4.1600     2.6180    -0.7100 ca         1 78A      -0.107000
      5 C15          4.0320     3.4350     0.4050 ca         1 78A      -0.131000
      6 C14          4.6430     3.0790     1.6020 ca         1 78A      -0.122000
      7 C13          5.3820     1.9060     1.6750 ca         1 78A      -0.131000
      8 C12          5.5040     1.0890     0.5570 ca         1 78A      -0.107000
      9 C2           2.1720    -1.9540    -1.5660 cx         1 78A      -0.019900
     10 O1           2.0330    -3.3280    -1.3180 op         1 78A      -0.330600
     11 C3           1.4490    -2.4570    -0.3890 cx         1 78A      -0.008900
     12 C4          -0.0520    -2.3840    -0.4060 c          1 78A       0.679100
     13 O4          -0.7060    -2.7910    -1.3510 o          1 78A      -0.587100
     14 N1          -0.5770    -1.8280     0.6930 ns         1 78A      -0.535900
     15 C5          -1.9690    -1.4670     0.7720 c3         1 78A       0.029700
     16 C6          -2.2490    -0.3090    -0.1990 c          1 78A       0.665100
     17 O5          -1.3260     0.3360    -0.6790 o          1 78A      -0.607100
     18 C17         -2.3560    -1.1310     2.2250 c3         1 78A      -0.062700
     19 C19         -1.7170     0.1710     2.7190 c3         1 78A      -0.087400
     20 C18         -2.0670    -2.3240     3.1330 c3         1 78A      -0.086100
     21 C20         -2.1140     0.5350     4.1440 c3         1 78A      -0.080100
     22 N2          -3.5260    -0.0480    -0.4970 n          1 78A      -0.439800
     23 C7          -3.8460     1.0830    -1.3600 c5         1 78A      -0.029300
     24 C8          -3.3740     2.4410    -0.8020 c          1 78A       0.939600
     25 O6          -3.1140     3.3090    -1.6600 o          1 78A      -0.829800
     26 C23         -5.3780     1.0340    -1.4500 c5         1 78A      -0.077400
     27 C22         -5.7240    -0.4200    -1.1520 c5         1 78A      -0.098400
     28 C21         -4.7100    -0.7840    -0.0780 c5         1 78A       0.109000
     29 O7          -3.3610     2.5740     0.4340 o          1 78A      -0.829800
     30 C9           3.5500    -1.3880    -1.3530 c          1 78A       0.680100
     31 O2           4.3510    -1.9260    -0.6080 o          1 78A      -0.600100
     32 HN3          3.0440     0.1390    -2.5880 hn         1 78A       0.327500
     33 H101         5.8410    -0.1360    -1.7590 h1         1 78A       0.056200
     34 H102         5.1260     1.1180    -2.7570 h1         1 78A       0.056200
     35 H16          3.6850     2.9060    -1.6410 ha         1 78A       0.135000
     36 H15          3.4590     4.3510     0.3400 ha         1 78A       0.131500
     37 H14          4.5460     3.7160     2.4720 ha         1 78A       0.127000
     38 H13          5.8620     1.6240     2.6030 ha         1 78A       0.131500
     39 H12          6.0760     0.1710     0.6210 ha         1 78A       0.135000
     40 H2           1.5940    -1.5640    -2.4020 h1         1 78A       0.119700
     41 H3           1.9400    -2.4020     0.5820 h1         1 78A       0.104700
     42 HN1          0.0550    -1.4310     1.3710 hn         1 78A       0.317500
     43 H5          -2.5540    -2.3410     0.4680 h1         1 78A       0.068700
     44 H17         -3.4390    -0.9790     2.2310 hc         1 78A       0.062700
     45 H191        -2.0160     0.9840     2.0550 hc         1 78A       0.069200
     46 H192        -0.6240     0.1100     2.6640 hc         1 78A       0.069200
     47 H181        -0.9970    -2.4870     3.2720 hc         1 78A       0.027033
     48 H182        -2.5050    -2.1780     4.1200 hc         1 78A       0.027033
     49 H183        -2.4910    -3.2410     2.7210 hc         1 78A       0.027033
     50 H201        -1.7260     1.5180     4.4110 hc         1 78A       0.023700
     51 H202        -3.2000     0.5680     4.2550 hc         1 78A       0.023700
     52 H203        -1.7280    -0.1770     4.8740 hc         1 78A       0.023700
     53 H7          -3.4060     0.9190    -2.3480 h1         1 78A       0.053700
     54 H231        -5.7410     1.3740    -2.4190 hc         1 78A       0.048700
     55 H232        -5.8210     1.6760    -0.6850 hc         1 78A       0.048700
     56 H221        -5.5740    -1.0450    -2.0350 hc         1 78A       0.032700
     57 H222        -6.7500    -0.5590    -0.8140 hc         1 78A       0.032700
     58 H211        -4.5260    -1.8570    -0.0220 h1         1 78A       0.030200
     59 H212        -5.0570    -0.4490     0.9040 h1         1 78A       0.030200
@<TRIPOS>BOND
     1     1     2 1   
     2     1    30 1   
     3     1    32 1   
     4     2     3 1   
     5     2    33 1   
     6     2    34 1   
     7     3     4 ar  
     8     3     8 ar  
     9     4     5 ar  
    10     4    35 1   
    11     5     6 ar  
    12     5    36 1   
    13     6     7 ar  
    14     6    37 1   
    15     7     8 ar  
    16     7    38 1   
    17     8    39 1   
    18     9    10 1   
    19     9    11 1   
    20     9    30 1   
    21     9    40 1   
    22    10    11 1   
    23    11    12 1   
    24    11    41 1   
    25    12    13 2   
    26    12    14 1   
    27    14    15 1   
    28    14    42 1   
    29    15    16 1   
    30    15    18 1   
    31    15    43 1   
    32    16    17 2   
    33    16    22 1   
    34    18    19 1   
    35    18    20 1   
    36    18    44 1   
    37    19    21 1   
    38    19    45 1   
    39    19    46 1   
    40    20    47 1   
    41    20    48 1   
    42    20    49 1   
    43    21    50 1   
    44    21    51 1   
    45    21    52 1   
    46    22    23 1   
    47    22    28 1   
    48    23    24 1   
    49    23    26 1   
    50    23    53 1   
    51    24    25 1   
    52    24    29 1   
    53    26    27 1   
    54    26    54 1   
    55    26    55 1   
    56    27    28 1   
    57    27    56 1   
    58    27    57 1   
    59    28    58 1   
    60    28    59 1   
    61    30    31 2   
@<TRIPOS>SUBSTRUCTURE
     1 78A         1 TEMP              0 ****  ****    0 ROOT
