@<TRIPOS>MOLECULE
78A
   59    61     1     0     0
SMALL
No Charge or Current Charge


@<TRIPOS>ATOM
      1 N3           3.2840    -0.1890    -1.6590 ns         1 78A      -0.495900
      2 C10          4.3210     0.8370    -1.7520 c3         1 78A       0.153300
      3 C11          4.6120     1.4390    -0.3860 ca         1 78A      -0.122300
      4 C16          3.8870     2.5600     0.0670 ca         1 78A      -0.089000
      5 C15          4.1490     3.1080     1.3340 ca         1 78A      -0.113000
      6 C14          5.1370     2.5400     2.1570 ca         1 78A      -0.104000
      7 C13          5.8610     1.4210     1.7110 ca         1 78A      -0.113000
      8 C12          5.5990     0.8720     0.4440 ca         1 78A      -0.089000
      9 C2           2.2740    -2.3790    -1.3490 cx         1 78A       0.003300
     10 O1           2.4030    -3.6770    -0.7050 op         1 78A      -0.377000
     11 C3           1.7820    -2.6060     0.0580 cx         1 78A       0.014300
     12 C4           0.2830    -2.6730     0.2900 c          1 78A       0.612100
     13 O4          -0.3210    -3.7190     0.4860 o          1 78A      -0.587100
     14 N1          -0.3450    -1.4450     0.2580 ns         1 78A      -0.468900
     15 C5          -1.7960    -1.2130     0.4540 c3         1 78A       0.029700
     16 C6          -2.3080    -0.1380    -0.5620 c          1 78A       0.598100
     17 O5          -1.5210     0.5780    -1.1750 o          1 78A      -0.607100
     18 C17         -2.1290    -0.8410     1.9370 c3         1 78A      -0.062700
     19 C19         -1.3400     0.4080     2.4310 c3         1 78A      -0.087400
     20 C18         -1.9610    -2.0580     2.8810 c3         1 78A      -0.086100
     21 C20         -1.7840     0.9460     3.8080 c3         1 78A      -0.080100
     22 N2          -3.7020     0.0270    -0.7360 n          1 78A      -0.372800
     23 C7          -4.2870     1.1400    -1.5410 c5         1 78A      -0.029300
     24 C8          -3.8650     2.5940    -1.1280 c          1 78A       0.729000
     25 O6          -3.6020     3.4010    -2.0100 o          1 78A      -0.724500
     26 C23         -5.8070     0.9400    -1.2750 c5         1 78A      -0.077400
     27 C22         -5.9130    -0.6040    -1.2660 c5         1 78A      -0.098400
     28 C21         -4.7020    -1.0060    -0.3830 c5         1 78A       0.109000
     29 O7          -3.7940     2.8920     0.0580 o          1 78A      -0.724500
     30 C9           3.5260    -1.5390    -1.5280 c          1 78A       0.613100
     31 O2           4.6570    -2.0090    -1.5490 o          1 78A      -0.600100
     32 HN3          2.3170     0.1100    -1.6480 hn         1 78A       0.327500
     33 H101         5.2380     0.4080    -2.1770 h1         1 78A       0.056200
     34 H102         3.9760     1.6240    -2.4370 h1         1 78A       0.056200
     35 H16          3.1180     3.0050    -0.5620 ha         1 78A       0.117000
     36 H15          3.5870     3.9740     1.6790 ha         1 78A       0.113500
     37 H14          5.3390     2.9650     3.1370 ha         1 78A       0.109000
     38 H13          6.6240     0.9790     2.3480 ha         1 78A       0.113500
     39 H12          6.1610     0.0030     0.1080 ha         1 78A       0.117000
     40 H2           1.5570    -2.3410    -2.1690 h1         1 78A       0.119700
     41 H3           2.3730    -2.2350     0.8950 h1         1 78A       0.104700
     42 HN1          0.2370    -0.6380     0.0630 hn         1 78A       0.317500
     43 H5          -2.3230    -2.1430     0.2050 h1         1 78A       0.068700
     44 H17         -3.1920    -0.5750     1.9750 hc         1 78A       0.062700
     45 H191        -1.4540     1.2200     1.7010 hc         1 78A       0.069200
     46 H192        -0.2680     0.1780     2.4740 hc         1 78A       0.069200
     47 H181        -0.9030    -2.3150     3.0090 hc         1 78A       0.027033
     48 H182        -2.3850    -1.8510     3.8700 hc         1 78A       0.027033
     49 H183        -2.4830    -2.9350     2.4780 hc         1 78A       0.027033
     50 H201        -1.2540     1.8780     4.0380 hc         1 78A       0.023700
     51 H202        -2.8610     1.1560     3.8140 hc         1 78A       0.023700
     52 H203        -1.5620     0.2290     4.6060 hc         1 78A       0.023700
     53 H7          -4.0520     0.9980    -2.6040 h1         1 78A       0.053700
     54 H231        -6.4330     1.4040    -2.0450 hc         1 78A       0.048700
     55 H232        -6.1110     1.3590    -0.3080 hc         1 78A       0.048700
     56 H221        -5.8140    -1.0100    -2.2790 hc         1 78A       0.032700
     57 H222        -6.8650    -0.9630    -0.8590 hc         1 78A       0.032700
     58 H211        -4.3590    -2.0230    -0.6130 h1         1 78A       0.030200
     59 H212        -4.9600    -0.9520     0.6820 h1         1 78A       0.030200
@<TRIPOS>BOND
     1     1     2 1   
     2     1    30 1   
     3     1    32 1   
     4     2     3 1   
     5     2    33 1   
     6     2    34 1   
     7     3     4 ar  
     8     3     8 ar  
     9     4     5 ar  
    10     4    35 1   
    11     5     6 ar  
    12     5    36 1   
    13     6     7 ar  
    14     6    37 1   
    15     7     8 ar  
    16     7    38 1   
    17     8    39 1   
    18     9    10 1   
    19     9    11 1   
    20     9    30 1   
    21     9    40 1   
    22    10    11 1   
    23    11    12 1   
    24    11    41 1   
    25    12    13 2   
    26    12    14 1   
    27    14    15 1   
    28    14    42 1   
    29    15    16 1   
    30    15    18 1   
    31    15    43 1   
    32    16    17 2   
    33    16    22 1   
    34    18    19 1   
    35    18    20 1   
    36    18    44 1   
    37    19    21 1   
    38    19    45 1   
    39    19    46 1   
    40    20    47 1   
    41    20    48 1   
    42    20    49 1   
    43    21    50 1   
    44    21    51 1   
    45    21    52 1   
    46    22    23 1   
    47    22    28 1   
    48    23    24 1   
    49    23    26 1   
    50    23    53 1   
    51    24    25 1   
    52    24    29 1   
    53    26    27 1   
    54    26    54 1   
    55    26    55 1   
    56    27    28 1   
    57    27    56 1   
    58    27    57 1   
    59    28    58 1   
    60    28    59 1   
    61    30    31 2   
@<TRIPOS>SUBSTRUCTURE
     1 78A         1 TEMP              0 ****  ****    0 ROOT
