@<TRIPOS>MOLECULE
78B
   26    26     1     0     0
SMALL
abcg2


@<TRIPOS>ATOM
      1 O1           2.1860    -1.9020     0.3030 o          1 78B      -0.497000
      2 C1           1.7230    -0.7950     0.1550 c          1 78B       0.610700
      3 O2           2.4610     0.2880    -0.0180 os         1 78B      -0.447100
      4 C            4.4900     1.5080    -0.2510 c3         1 78B      -0.098100
      5 C2           3.8890     0.1410    -0.0330 c3         1 78B       0.169600
      6 C3           0.2680    -0.5060     0.1470 ca         1 78B      -0.145600
      7 C4          -0.2430     0.7750    -0.0510 ca         1 78B      -0.056000
      8 C5          -1.6120     0.9920    -0.0530 ca         1 78B      -0.122000
      9 C6          -2.5020    -0.0600     0.1390 ca         1 78B      -0.054300
     10 C7          -3.9950     0.1470     0.1650 c3         1 78B       0.192100
     11 N1          -4.3990     1.4170    -0.4060 n8         1 78B      -0.999200
     12 C8          -1.9840    -1.3410     0.3310 ca         1 78B      -0.122000
     13 C9          -0.6200    -1.5640     0.3400 ca         1 78B      -0.056000
     14 H1           4.2230    -0.2850     0.9150 h1         1 78B       0.048700
     15 H2           4.1800    -0.5440    -0.8310 h1         1 78B       0.048700
     16 H4           0.4200     1.6150    -0.2060 ha         1 78B       0.131500
     17 H5          -1.9960     1.9910    -0.2100 ha         1 78B       0.125000
     18 H6          -4.4690    -0.7250    -0.3050 h1         1 78B       0.039200
     19 H7          -4.3170     0.1280     1.2100 h1         1 78B       0.039200
     20 H8          -4.2840     1.3920    -1.4110 hn         1 78B       0.398500
     21 H9          -5.3870     1.5540    -0.2410 hn         1 78B       0.398500
     22 H11         -2.6600    -2.1770     0.4730 ha         1 78B       0.125000
     23 H12         -0.2430    -2.5670     0.4920 ha         1 78B       0.131500
     24 HA           4.1740     1.9390    -1.2020 hc         1 78B       0.046367
     25 HB           4.2220     2.1980     0.5500 hc         1 78B       0.046367
     26 HC           5.5760     1.4220    -0.2690 hc         1 78B       0.046367
@<TRIPOS>BOND
     1     1     2 2   
     2     2     3 1   
     3     2     6 1   
     4     3     5 1   
     5     4     5 1   
     6     4    24 1   
     7     4    25 1   
     8     4    26 1   
     9     5    14 1   
    10     5    15 1   
    11     6     7 ar  
    12     6    13 ar  
    13     7     8 ar  
    14     7    16 1   
    15     8     9 ar  
    16     8    17 1   
    17     9    10 1   
    18     9    12 ar  
    19    10    11 1   
    20    10    18 1   
    21    10    19 1   
    22    11    20 1   
    23    11    21 1   
    24    12    13 ar  
    25    12    22 1   
    26    13    23 1   
@<TRIPOS>SUBSTRUCTURE
     1 78B         1 TEMP              0 ****  ****    0 ROOT
