@<TRIPOS>MOLECULE
78B
   26    26     1     0     0
SMALL
No Charge or Current Charge


@<TRIPOS>ATOM
      1 O1           2.1370    -1.9380    -0.1290 o          1 78B      -0.497000
      2 C1           1.7220    -0.7900    -0.0380 c          1 78B       0.610700
      3 O2           2.5420     0.3110    -0.0220 os         1 78B      -0.447100
      4 C            4.6330     1.4830    -0.0780 c3         1 78B      -0.098100
      5 C2           3.9600     0.1010    -0.1180 c3         1 78B       0.169600
      6 C3           0.2500    -0.4550     0.0690 ca         1 78B      -0.145600
      7 C4          -0.1970     0.8830     0.1720 ca         1 78B      -0.056000
      8 C5          -1.5690     1.1710     0.2710 ca         1 78B      -0.122000
      9 C6          -2.5210     0.1340     0.2690 ca         1 78B      -0.054300
     10 C7          -4.0080     0.4510     0.3820 c3         1 78B       0.192100
     11 N1          -4.6060     0.7510    -0.9340 n8         1 78B      -0.999200
     12 C8          -2.0810    -1.1990     0.1660 ca         1 78B      -0.122000
     13 C9          -0.7090    -1.4920     0.0670 ca         1 78B      -0.056000
     14 H1           4.3250    -0.5080     0.7190 h1         1 78B       0.048700
     15 H2           4.2190    -0.4050    -1.0580 h1         1 78B       0.048700
     16 H4           0.5120     1.7080     0.1770 ha         1 78B       0.131500
     17 H5          -1.8960     2.2060     0.3480 ha         1 78B       0.125000
     18 H6          -4.5360    -0.4050     0.8260 h1         1 78B       0.039200
     19 H7          -4.1520     1.3170     1.0440 h1         1 78B       0.039200
     20 H8          -4.5210    -0.0810    -1.5300 hn         1 78B       0.398500
     21 H9          -5.6200     0.8660    -0.8200 hn         1 78B       0.398500
     22 H11         -2.8030    -2.0120     0.1630 ha         1 78B       0.125000
     23 H12         -0.3940    -2.5310    -0.0110 ha         1 78B       0.131500
     24 HA           4.2930     2.1030    -0.9150 hc         1 78B       0.046367
     25 HB           4.3980     1.9990     0.8610 hc         1 78B       0.046367
     26 HC           5.7220     1.3760    -0.1480 hc         1 78B       0.046367
@<TRIPOS>BOND
     1     1     2 2   
     2     2     3 1   
     3     2     6 1   
     4     3     5 1   
     5     4     5 1   
     6     4    24 1   
     7     4    25 1   
     8     4    26 1   
     9     5    14 1   
    10     5    15 1   
    11     6     7 ar  
    12     6    13 ar  
    13     7     8 ar  
    14     7    16 1   
    15     8     9 ar  
    16     8    17 1   
    17     9    10 1   
    18     9    12 ar  
    19    10    11 1   
    20    10    18 1   
    21    10    19 1   
    22    11    20 1   
    23    11    21 1   
    24    12    13 ar  
    25    12    22 1   
    26    13    23 1   
@<TRIPOS>SUBSTRUCTURE
     1 78B         1 TEMP              0 ****  ****    0 ROOT
