@<TRIPOS>MOLECULE
78C
   36    38     1     0     0
SMALL
bcc


@<TRIPOS>ATOM
      1 O1          -0.5440    -2.6630    -1.3260 o          1 78C      -0.538500
      2 C2           0.2980    -2.1370    -0.6580 c          1 78C       0.734500
      3 C3           1.7240    -2.4410    -0.2440 cy         1 78C      -0.189400
      4 C4           1.6660    -1.1290     0.5840 cy         1 78C       0.171000
      5 C11          2.6290    -0.0400     0.2190 ca         1 78C      -0.097300
      6 C12          3.5580     0.3970     1.1550 ca         1 78C      -0.104000
      7 C13          4.4820     1.3810     0.8280 ca         1 78C      -0.129500
      8 C14          4.4790     1.9430    -0.4400 ca         1 78C      -0.116000
      9 C15          3.5490     1.5140    -1.3810 ca         1 78C      -0.129500
     10 C16          2.6310     0.5270    -1.0530 ca         1 78C      -0.104000
     11 N1           0.3030    -0.9620     0.0740 nj         1 78C      -0.538400
     12 C5          -0.6020     0.0310     0.3730 c          1 78C       0.776100
     13 O2          -0.3390     0.9200     1.1420 o          1 78C      -0.559000
     14 O3          -1.7270    -0.1410    -0.2870 os         1 78C      -0.405900
     15 C6          -2.7780     0.8260    -0.0930 c5         1 78C       0.162100
     16 C7          -3.8330     0.6380    -1.1990 c5         1 78C      -0.094400
     17 C8          -5.1610     0.3790    -0.4740 c5         1 78C      -0.080400
     18 C9          -4.9580     1.0070     0.9040 c5         1 78C      -0.080400
     19 C10         -3.5150     0.6380     1.2360 c5         1 78C      -0.094400
     20 H31C         1.8370    -3.3540     0.3390 hc         1 78C       0.090700
     21 H32C         2.4370    -2.4420    -1.0680 hc         1 78C       0.090700
     22 H4           1.6770    -1.3090     1.6600 h1         1 78C       0.077700
     23 H12          3.5590    -0.0310     2.1510 ha         1 78C       0.132500
     24 H16          1.9130     0.2060    -1.7990 ha         1 78C       0.132500
     25 H13          5.1990     1.7140     1.5680 ha         1 78C       0.133000
     26 H14          5.1960     2.7130    -0.6960 ha         1 78C       0.132000
     27 H15          3.5380     1.9500    -2.3710 ha         1 78C       0.133000
     28 H6          -2.3400     1.8240    -0.1510 h1         1 78C       0.063700
     29 H71C        -3.8930     1.5450    -1.8010 hc         1 78C       0.060450
     30 H72C        -3.5640    -0.1710    -1.8790 hc         1 78C       0.060450
     31 H101        -3.4670    -0.4150     1.5300 hc         1 78C       0.060450
     32 H102        -3.0830     1.2280     2.0440 hc         1 78C       0.060450
     33 H81C        -6.0170     0.7880    -1.0100 hc         1 78C       0.047450
     34 H82C        -5.3300    -0.6950    -0.3650 hc         1 78C       0.047450
     35 H91C        -5.0680     2.0930     0.8450 hc         1 78C       0.047450
     36 H92C        -5.6650     0.6460     1.6520 hc         1 78C       0.047450
@<TRIPOS>BOND
     1     1     2 2   
     2     2     3 1   
     3     2    11 1   
     4     3     4 1   
     5     3    20 1   
     6     3    21 1   
     7     4     5 1   
     8     4    11 1   
     9     4    22 1   
    10     5     6 ar  
    11     5    10 ar  
    12     6     7 ar  
    13     6    23 1   
    14     7     8 ar  
    15     7    25 1   
    16     8     9 ar  
    17     8    26 1   
    18     9    10 ar  
    19     9    27 1   
    20    10    24 1   
    21    11    12 1   
    22    12    13 2   
    23    12    14 1   
    24    14    15 1   
    25    15    16 1   
    26    15    19 1   
    27    15    28 1   
    28    16    17 1   
    29    16    29 1   
    30    16    30 1   
    31    17    18 1   
    32    17    33 1   
    33    17    34 1   
    34    18    19 1   
    35    18    35 1   
    36    18    36 1   
    37    19    31 1   
    38    19    32 1   
@<TRIPOS>SUBSTRUCTURE
     1 78C         1 TEMP              0 ****  ****    0 ROOT
