@<TRIPOS>MOLECULE
78C
   36    38     1     0     0
SMALL
No Charge or Current Charge


@<TRIPOS>ATOM
      1 O1          -0.0820    -3.8460     1.1520 o          1 78C      -0.463000
      2 C2           0.5370    -2.8270     0.8830 c          1 78C       0.592000
      3 C3           2.0030    -2.3520     1.0230 cy         1 78C      -0.189400
      4 C4           1.3800    -0.9280     0.8590 cy         1 78C       0.171000
      5 C11          2.1210     0.0620    -0.0370 ca         1 78C      -0.097300
      6 C12          2.4590     1.3390     0.4530 ca         1 78C      -0.086000
      7 C13          3.1340     2.2600    -0.3680 ca         1 78C      -0.111500
      8 C14          3.4730     1.9110    -1.6860 ca         1 78C      -0.098000
      9 C15          3.1340     0.6420    -2.1830 ca         1 78C      -0.111500
     10 C16          2.4600    -0.2800    -1.3630 ca         1 78C      -0.086000
     11 N1           0.2040    -1.6250     0.2580 nj         1 78C      -0.404400
     12 C5          -0.8310    -1.0440     1.0040 c          1 78C       0.660100
     13 O2          -1.2650    -1.2850     2.1250 o          1 78C      -0.510000
     14 O3          -1.3200    -0.0210     0.2270 os         1 78C      -0.429100
     15 C6          -2.4320     0.7270     0.7860 c5         1 78C       0.185300
     16 C7          -2.6500     1.9590    -0.1450 c5         1 78C      -0.094400
     17 C8          -3.7110     1.4530    -1.1540 c5         1 78C      -0.080400
     18 C9          -4.6990     0.7690    -0.1820 c5         1 78C      -0.080400
     19 C10         -3.7370    -0.1330     0.6380 c5         1 78C      -0.094400
     20 H31C         2.4340    -2.5910     1.9990 hc         1 78C       0.090700
     21 H32C         2.6230    -2.7300     0.2050 hc         1 78C       0.090700
     22 H4           1.1980    -0.4580     1.8380 h1         1 78C       0.077700
     23 H12          2.2000     1.6230     1.4720 ha         1 78C       0.114500
     24 H16          2.1970    -1.2560    -1.7630 ha         1 78C       0.114500
     25 H13          3.3930     3.2430     0.0180 ha         1 78C       0.115000
     26 H14          3.9940     2.6240    -2.3210 ha         1 78C       0.114000
     27 H15          3.3930     0.3720    -3.2050 ha         1 78C       0.115000
     28 H6          -2.2120     1.0360     1.8180 h1         1 78C       0.063700
     29 H71C        -3.0260     2.8150     0.4270 hc         1 78C       0.060450
     30 H72C        -1.7270     2.2870    -0.6370 hc         1 78C       0.060450
     31 H101        -3.5460    -1.0740     0.1080 hc         1 78C       0.060450
     32 H102        -4.1630    -0.3980     1.6120 hc         1 78C       0.060450
     33 H81C        -4.1740     2.2700    -1.7200 hc         1 78C       0.047450
     34 H82C        -3.2870     0.7450    -1.8770 hc         1 78C       0.047450
     35 H91C        -5.2130     1.5000     0.4550 hc         1 78C       0.047450
     36 H92C        -5.4700     0.1910    -0.7050 hc         1 78C       0.047450
@<TRIPOS>BOND
     1     1     2 2   
     2     2     3 1   
     3     2    11 1   
     4     3     4 1   
     5     3    20 1   
     6     3    21 1   
     7     4     5 1   
     8     4    11 1   
     9     4    22 1   
    10     5     6 ar  
    11     5    10 ar  
    12     6     7 ar  
    13     6    23 1   
    14     7     8 ar  
    15     7    25 1   
    16     8     9 ar  
    17     8    26 1   
    18     9    10 ar  
    19     9    27 1   
    20    10    24 1   
    21    11    12 1   
    22    12    13 2   
    23    12    14 1   
    24    14    15 1   
    25    15    16 1   
    26    15    19 1   
    27    15    28 1   
    28    16    17 1   
    29    16    29 1   
    30    16    30 1   
    31    17    18 1   
    32    17    33 1   
    33    17    34 1   
    34    18    19 1   
    35    18    35 1   
    36    18    36 1   
    37    19    31 1   
    38    19    32 1   
@<TRIPOS>SUBSTRUCTURE
     1 78C         1 TEMP              0 ****  ****    0 ROOT
