@<TRIPOS>MOLECULE
78D
   47    47     1     0     0
SMALL
abcg2


@<TRIPOS>ATOM
      1 N2          -6.6780    -1.7430    -0.2420 n7         1 78D      -0.617200
      2 C2          -7.9640     0.8490    -0.1190 c6         1 78D      -0.112400
      3 N1          -8.0400    -1.6040    -0.5740 n7         1 78D      -0.619200
      4 C4          -5.8960    -0.5200    -0.3640 c6         1 78D       0.068500
      5 C5          -4.5020    -0.7720     0.1610 c          1 78D       0.601100
      6 C16         -2.3210     0.1450     0.2830 c3         1 78D       0.167600
      7 C18         -0.2380     1.4800     0.3830 c2         1 78D      -0.255200
      8 C15          9.1670    -1.0400     0.0840 c          1 78D       0.717000
      9 C17         -1.6320     1.4250    -0.1550 c3         1 78D      -0.040200
     10 C19          0.8640     1.4680    -0.3720 ce         1 78D      -0.140000
     11 C1          -6.5200     0.6940     0.3410 c6         1 78D      -0.103400
     12 C3          -8.7060    -0.4690     0.0510 c6         1 78D       0.110800
     13 C20          2.2160     1.5150     0.1580 ce         1 78D      -0.233000
     14 O1          -3.6700     0.1910    -0.2030 os         1 78D      -0.455100
     15 C21          3.3130     1.5030    -0.6060 c2         1 78D      -0.158200
     16 O2          -4.1870    -1.7080     0.8530 o          1 78D      -0.477000
     17 O5           9.6670    -0.0100     0.5790 o          1 78D      -0.742500
     18 C22          4.7160     1.5240    -0.0970 c3         1 78D      -0.056200
     19 C23          5.4760     0.2370    -0.4280 c3         1 78D      -0.075400
     20 C29          6.9400     0.2900    -0.0090 c3         1 78D      -0.054400
     21 C30          7.6810    -1.0010    -0.3130 c3         1 78D      -0.204400
     22 H1          -6.6270    -2.1020     0.7040 hn         1 78D       0.445000
     23 H2          -8.4600     1.6400     0.4480 hc         1 78D       0.048200
     24 H3          -7.9860     1.1510    -1.1720 hc         1 78D       0.048200
     25 H4          -5.8150    -0.2850    -1.4330 h1         1 78D       0.086700
     26 H6          -1.8100    -0.7290    -0.1270 h1         1 78D       0.054700
     27 H7          -2.3190     0.0590     1.3730 h1         1 78D       0.054700
     28 H9          -0.1360     1.5250     1.4650 ha         1 78D       0.171000
     29 H12         -1.6210     1.4890    -1.2460 hc         1 78D       0.051700
     30 H13         -2.2040     2.2800     0.2190 hc         1 78D       0.051700
     31 H18          0.7650     1.4240    -1.4540 ha         1 78D       0.163000
     32 H19         -5.9460     1.5950     0.1240 hc         1 78D       0.058700
     33 H20         -6.4890     0.5400     1.4250 hc         1 78D       0.058700
     34 H21         -8.8190    -0.6890     1.1180 h1         1 78D       0.056700
     35 H22         -9.7130    -0.4080    -0.3660 h1         1 78D       0.056700
     36 H26          2.3200     1.5600     1.2400 ha         1 78D       0.173000
     37 H27          3.1950     1.4520    -1.6860 ha         1 78D       0.160000
     38 H31          5.2500     2.3690    -0.5450 hc         1 78D       0.046700
     39 H32          4.7220     1.6860     0.9850 hc         1 78D       0.046700
     40 H33          4.9800    -0.6060     0.0630 hc         1 78D       0.028700
     41 H34          5.4090     0.0430    -1.5040 hc         1 78D       0.028700
     42 H39          7.4290     1.1290    -0.5150 hc         1 78D       0.038700
     43 H40          7.0020     0.5100     1.0610 hc         1 78D       0.038700
     44 H41          7.6090    -1.2210    -1.3850 hc         1 78D       0.015700
     45 H42          7.1740    -1.8390     0.1790 hc         1 78D       0.015700
     46 OXT          9.7610    -2.1190    -0.1280 o          1 78D      -0.742500
     47 H5          -8.1010    -1.5330    -1.5820 hn         1 78D       0.424000
@<TRIPOS>BOND
     1     1     3 1   
     2     1     4 1   
     3     1    22 1   
     4     2    11 1   
     5     2    12 1   
     6     2    23 1   
     7     2    24 1   
     8     3    12 1   
     9     3    47 1   
    10     4     5 1   
    11     4    11 1   
    12     4    25 1   
    13     5    14 1   
    14     5    16 2   
    15     6     9 1   
    16     6    14 1   
    17     6    26 1   
    18     6    27 1   
    19     7     9 1   
    20     7    10 2   
    21     7    28 1   
    22     8    17 1   
    23     8    21 1   
    24     8    46 1   
    25     9    29 1   
    26     9    30 1   
    27    10    13 1   
    28    10    31 1   
    29    11    32 1   
    30    11    33 1   
    31    12    34 1   
    32    12    35 1   
    33    13    15 2   
    34    13    36 1   
    35    15    18 1   
    36    15    37 1   
    37    18    19 1   
    38    18    38 1   
    39    18    39 1   
    40    19    20 1   
    41    19    40 1   
    42    19    41 1   
    43    20    21 1   
    44    20    42 1   
    45    20    43 1   
    46    21    44 1   
    47    21    45 1   
@<TRIPOS>SUBSTRUCTURE
     1 78D         1 TEMP              0 ****  ****    0 ROOT
