@<TRIPOS>MOLECULE
78D
   47    47     1     0     0
SMALL
No Charge or Current Charge


@<TRIPOS>ATOM
      1 N2          -6.6190    -1.7780    -0.0100 n7         1 78D      -0.617200
      2 C2          -7.8170     0.8650    -0.4420 c6         1 78D      -0.112400
      3 N1          -8.0670    -1.6240    -0.2400 n7         1 78D      -0.619200
      4 C4          -5.8120    -0.6890    -0.6790 c6         1 78D       0.068500
      5 C5          -4.2640    -0.9150    -0.5360 c          1 78D       0.601100
      6 C16         -2.1520     0.0210     0.1720 c3         1 78D       0.167600
      7 C18         -0.1370     1.3200     1.0150 c2         1 78D      -0.255200
      8 C15          8.8860    -1.1270     0.0270 c          1 78D       0.717000
      9 C17         -1.6350     1.3360     0.7870 c3         1 78D      -0.040200
     10 C19          0.8000     1.5630     0.0760 ce         1 78D      -0.140000
     11 C1          -6.2960     0.7180    -0.2160 c6         1 78D      -0.103400
     12 C3          -8.5660    -0.3040     0.2350 c6         1 78D       0.110800
     13 C20          2.2380     1.5310     0.3540 ce         1 78D      -0.233000
     14 O1          -3.5760     0.1470     0.0040 os         1 78D      -0.455100
     15 C21          3.1820     1.7710    -0.5810 c2         1 78D      -0.158200
     16 O2          -3.7200    -1.9600    -0.8760 o          1 78D      -0.477000
     17 O5           9.6200    -0.9840    -0.9390 o          1 78D      -0.742500
     18 C22          4.6770     1.7480    -0.3420 c3         1 78D      -0.056200
     19 C23          5.2570     0.3180    -0.3960 c3         1 78D      -0.075400
     20 C29          6.7840     0.2730    -0.1610 c3         1 78D      -0.054400
     21 C30          7.3660    -1.1610    -0.2140 c3         1 78D      -0.204400
     22 H1          -6.3590    -1.9190     0.9850 hn         1 78D       0.445000
     23 H2          -8.1690     1.8220    -0.0350 hc         1 78D       0.048200
     24 H3          -8.0390     0.8770    -1.5180 hc         1 78D       0.048200
     25 H4          -5.9880    -0.7490    -1.7630 h1         1 78D       0.086700
     26 H6          -1.6580    -0.1500    -0.7940 h1         1 78D       0.054700
     27 H7          -1.9090    -0.8160     0.8410 h1         1 78D       0.054700
     28 H9           0.1570     1.0860     2.0410 ha         1 78D       0.171000
     29 H12         -1.9050     2.1690     0.1250 hc         1 78D       0.051700
     30 H13         -2.1550     1.5110     1.7370 hc         1 78D       0.051700
     31 H18          0.5000     1.7970    -0.9480 ha         1 78D       0.163000
     32 H19         -5.7640     1.5040    -0.7700 hc         1 78D       0.058700
     33 H20         -6.0620     0.8650     0.8480 hc         1 78D       0.058700
     34 H21         -8.4320    -0.2340     1.3250 h1         1 78D       0.056700
     35 H22         -9.6450    -0.2220     0.0330 h1         1 78D       0.056700
     36 H26          2.5370     1.2970     1.3780 ha         1 78D       0.173000
     37 H27          2.8970     2.0040    -1.6090 ha         1 78D       0.160000
     38 H31          5.1810     2.3680    -1.0940 hc         1 78D       0.046700
     39 H32          4.9070     2.1950     0.6330 hc         1 78D       0.046700
     40 H33          4.7570    -0.2990     0.3610 hc         1 78D       0.028700
     41 H34          5.0270    -0.1240    -1.3730 hc         1 78D       0.028700
     42 H39          7.2820     0.8920    -0.9170 hc         1 78D       0.038700
     43 H40          7.0110     0.7180     0.8160 hc         1 78D       0.038700
     44 H41          7.1450    -1.5380    -1.2210 hc         1 78D       0.015700
     45 H42          6.8630    -1.7190     0.5850 hc         1 78D       0.015700
     46 OXT          9.2900    -1.1970     1.1780 o          1 78D      -0.742500
     47 H5          -8.3620    -1.8330    -1.2110 hn         1 78D       0.424000
@<TRIPOS>BOND
     1     1     3 1   
     2     1     4 1   
     3     1    22 1   
     4     2    11 1   
     5     2    12 1   
     6     2    23 1   
     7     2    24 1   
     8     3    12 1   
     9     3    47 1   
    10     4     5 1   
    11     4    11 1   
    12     4    25 1   
    13     5    14 1   
    14     5    16 2   
    15     6     9 1   
    16     6    14 1   
    17     6    26 1   
    18     6    27 1   
    19     7     9 1   
    20     7    10 2   
    21     7    28 1   
    22     8    17 1   
    23     8    21 1   
    24     8    46 1   
    25     9    29 1   
    26     9    30 1   
    27    10    13 1   
    28    10    31 1   
    29    11    32 1   
    30    11    33 1   
    31    12    34 1   
    32    12    35 1   
    33    13    15 2   
    34    13    36 1   
    35    15    18 1   
    36    15    37 1   
    37    18    19 1   
    38    18    38 1   
    39    18    39 1   
    40    19    20 1   
    41    19    40 1   
    42    19    41 1   
    43    20    21 1   
    44    20    42 1   
    45    20    43 1   
    46    21    44 1   
    47    21    45 1   
@<TRIPOS>SUBSTRUCTURE
     1 78D         1 TEMP              0 ****  ****    0 ROOT
