@<TRIPOS>MOLECULE
78E
   82    84     1     0     0
SMALL
No Charge or Current Charge


@<TRIPOS>ATOM
      1 N2           0.7060    -3.5880    -0.4580 n7         1 78E      -0.568400
      2 C2           1.2130    -2.4960     1.9980 c6         1 78E      -0.100400
      3 N1          -0.4390    -2.8670     0.1130 n          1 78E      -0.295200
      4 C4           1.9520    -2.7590    -0.4830 c6         1 78E       0.078500
      5 C5           3.1340    -3.3290    -1.3330 c          1 78E       0.605100
      6 C16          5.4960    -3.0440    -1.8050 c3         1 78E       0.169600
      7 C18          6.2150    -0.6790    -1.1420 c2         1 78E      -0.206200
      8 C15         -0.3730     4.0610     0.8740 c          1 78E       0.602100
      9 C17          6.6330    -2.1360    -1.2820 c3         1 78E      -0.045200
     10 C19          5.6490    -0.1400    -0.0410 ce         1 78E      -0.172000
     11 C1           2.3500    -2.2940     0.9590 c6         1 78E      -0.098400
     12 C3          -0.1740    -2.1570     1.4020 c6         1 78E       0.081000
     13 C20          5.1950     1.2510     0.0570 ce         1 78E      -0.183000
     14 O1           4.3480    -2.8010    -0.9770 os         1 78E      -0.444100
     15 C21          4.6110     1.7500     1.1670 c2         1 78E      -0.206200
     16 O2           2.9810    -4.0970    -2.2760 o          1 78E      -0.474000
     17 O5          -0.6430     4.7930    -0.0680 o          1 78E      -0.611100
     18 C22          4.0800     3.1590     1.3460 c3         1 78E      -0.040200
     19 C23          2.5470     3.1660     1.5270 c3         1 78E      -0.083400
     20 C29          1.9520     4.5670     1.8120 c3         1 78E      -0.069400
     21 C30          0.4250     4.5430     2.0900 c3         1 78E      -0.157400
     22 N4          -0.7750     2.7450     0.9330 ns         1 78E      -0.503900
     23 C10         -1.4420     1.9830    -0.1510 c3         1 78E       0.045700
     24 C9          -2.0360     0.6610     0.4530 c          1 78E       0.595100
     25 O4          -2.2510     0.5330     1.6520 o          1 78E      -0.630100
     26 C11         -0.5030     1.8250    -1.4040 c3         1 78E      -0.073700
     27 C13          0.5930     0.7440    -1.2420 c3         1 78E      -0.096100
     28 C12         -1.2730     1.6770    -2.7410 c3         1 78E      -0.096100
     29 N3          -2.2580    -0.3810    -0.4240 ns         1 78E      -0.477900
     30 C7          -2.7530    -1.7310    -0.0620 c3         1 78E       0.036700
     31 C8          -4.1790    -1.9490    -0.6290 c3         1 78E      -0.042100
     32 C14         -5.1620    -0.8810    -0.1620 ca         1 78E      -0.046300
     33 C28         -5.7410    -0.9610     1.1190 ca         1 78E      -0.146000
     34 C27         -6.6330     0.0320     1.5590 ca         1 78E      -0.064000
     35 C24         -5.4860     0.2060    -0.9980 ca         1 78E      -0.144000
     36 C25         -6.3750     1.1980    -0.5580 ca         1 78E       0.145100
     37 C26         -6.9510     1.1130     0.7190 ca         1 78E      -0.204000
     38 O6          -6.6770     2.2460    -1.3750 oh         1 78E      -0.532100
     39 C6          -1.7210    -2.8160    -0.5260 c          1 78E       0.606100
     40 O3          -1.9680    -3.5650    -1.4680 o          1 78E      -0.561100
     41 H1           0.8580    -4.4740     0.0480 hn         1 78E       0.436000
     42 H2           1.2090    -3.5410     2.3390 hc         1 78E       0.054700
     43 H3           1.4010    -1.8840     2.8900 hc         1 78E       0.054700
     44 H4           1.7070    -1.8440    -1.0360 h1         1 78E       0.110700
     45 H6           5.2830    -2.7790    -2.8490 h1         1 78E       0.051700
     46 H7           5.8020    -4.0980    -1.7660 h1         1 78E       0.051700
     47 H9           6.3790    -0.0730    -2.0360 ha         1 78E       0.172000
     48 H12          6.9750    -2.5240    -0.3140 hc         1 78E       0.056700
     49 H13          7.4890    -2.2190    -1.9630 hc         1 78E       0.056700
     50 H18          5.4810    -0.7690     0.8370 ha         1 78E       0.168000
     51 H19          2.6450    -1.2350     0.9270 hc         1 78E       0.060200
     52 H20          3.2330    -2.8440     1.3130 hc         1 78E       0.060200
     53 H21         -0.9570    -2.4050     2.1330 h1         1 78E       0.055700
     54 H22         -0.2050    -1.0760     1.2230 h1         1 78E       0.055700
     55 H26          5.3310     1.8810    -0.8250 ha         1 78E       0.171000
     56 H27          4.4730     1.1150     2.0440 ha         1 78E       0.166000
     57 H31          4.5500     3.6190     2.2250 hc         1 78E       0.046700
     58 H32          4.3460     3.7850     0.4850 hc         1 78E       0.046700
     59 H33          2.0920     2.7560     0.6180 hc         1 78E       0.044200
     60 H34          2.2840     2.4910     2.3510 hc         1 78E       0.044200
     61 H39          2.4590     5.0000     2.6830 hc         1 78E       0.049700
     62 H40          2.1590     5.2310     0.9630 hc         1 78E       0.049700
     63 H41          0.1070     5.5630     2.3380 hc         1 78E       0.063700
     64 H42          0.2480     3.8790     2.9440 hc         1 78E       0.063700
     65 H29         -0.5560     2.2470     1.7890 hn         1 78E       0.337500
     66 H8          -2.3120     2.5740    -0.4650 h1         1 78E       0.077700
     67 H14          0.0390     2.7720    -1.5110 hc         1 78E       0.071700
     68 H15          0.1830    -0.2620    -1.3730 hc         1 78E       0.041533
     69 H16          1.3780     0.8810    -1.9960 hc         1 78E       0.041533
     70 H17          1.0630     0.7990    -0.2540 hc         1 78E       0.041533
     71 H23         -2.0110     2.4810    -2.8540 hc         1 78E       0.041533
     72 H24         -0.5790     1.7440    -3.5870 hc         1 78E       0.041533
     73 H25         -1.7970     0.7190    -2.8210 hc         1 78E       0.041533
     74 H28         -2.0450    -0.1990    -1.3970 hn         1 78E       0.332500
     75 H5          -2.8220    -1.8090     1.0300 h1         1 78E       0.079700
     76 H10         -4.1360    -1.9650    -1.7250 hc         1 78E       0.069700
     77 H11         -4.5370    -2.9410    -0.3250 hc         1 78E       0.069700
     78 H38         -5.4950    -1.7910     1.7770 ha         1 78E       0.112000
     79 H37         -7.0760    -0.0360     2.5510 ha         1 78E       0.114000
     80 H35         -5.0430     0.2860    -1.9880 ha         1 78E       0.126000
     81 H36         -7.6410     1.8780     1.0670 ha         1 78E       0.115000
     82 H30         -7.3130     2.8280    -0.9070 ho         1 78E       0.467000
@<TRIPOS>BOND
     1     1     3 1   
     2     1     4 1   
     3     1    41 1   
     4     2    11 1   
     5     2    12 1   
     6     2    42 1   
     7     2    43 1   
     8     3    12 1   
     9     3    39 1   
    10     4     5 1   
    11     4    11 1   
    12     4    44 1   
    13     5    14 1   
    14     5    16 2   
    15     6     9 1   
    16     6    14 1   
    17     6    45 1   
    18     6    46 1   
    19     7     9 1   
    20     7    10 2   
    21     7    47 1   
    22     8    17 2   
    23     8    21 1   
    24     8    22 1   
    25     9    48 1   
    26     9    49 1   
    27    10    13 1   
    28    10    50 1   
    29    11    51 1   
    30    11    52 1   
    31    12    53 1   
    32    12    54 1   
    33    13    15 2   
    34    13    55 1   
    35    15    18 1   
    36    15    56 1   
    37    18    19 1   
    38    18    57 1   
    39    18    58 1   
    40    19    20 1   
    41    19    59 1   
    42    19    60 1   
    43    20    21 1   
    44    20    61 1   
    45    20    62 1   
    46    21    63 1   
    47    21    64 1   
    48    22    23 1   
    49    22    65 1   
    50    23    24 1   
    51    23    26 1   
    52    23    66 1   
    53    24    25 2   
    54    24    29 1   
    55    26    27 1   
    56    26    28 1   
    57    26    67 1   
    58    27    68 1   
    59    27    69 1   
    60    27    70 1   
    61    28    71 1   
    62    28    72 1   
    63    28    73 1   
    64    29    30 1   
    65    29    74 1   
    66    30    31 1   
    67    30    39 1   
    68    30    75 1   
    69    31    32 1   
    70    31    76 1   
    71    31    77 1   
    72    32    33 ar  
    73    32    35 ar  
    74    33    34 ar  
    75    33    78 1   
    76    34    37 ar  
    77    34    79 1   
    78    35    36 ar  
    79    35    80 1   
    80    36    37 ar  
    81    36    38 1   
    82    37    81 1   
    83    38    82 1   
    84    39    40 2   
@<TRIPOS>SUBSTRUCTURE
     1 78E         1 TEMP              0 ****  ****    0 ROOT
