@<TRIPOS>MOLECULE
78E
   82    84     1     0     0
SMALL
abcg2


@<TRIPOS>ATOM
      1 N2           0.4850    -3.4170    -0.8040 n7         1 78E      -0.568400
      2 C2           0.2950    -4.0360     1.7560 c6         1 78E      -0.100400
      3 N1          -0.6190    -2.8530    -0.1760 n          1 78E      -0.295200
      4 C4           1.6870    -3.0420    -0.0830 c6         1 78E       0.078500
      5 C5           2.9040    -3.4840    -0.8570 c          1 78E       0.605100
      6 C16          5.2420    -3.1420    -1.0390 c3         1 78E       0.169600
      7 C18          5.8590    -0.7470    -0.6680 c2         1 78E      -0.206200
      8 C15         -0.2340     4.4120     0.5060 c          1 78E       0.602100
      9 C17          6.2560    -2.1720    -0.4600 c3         1 78E      -0.045200
     10 C19          5.6180     0.1180     0.3200 ce         1 78E      -0.172000
     11 C1           1.7030    -3.5840     1.3720 c6         1 78E      -0.098400
     12 C3          -0.7630    -3.0580     1.2750 c6         1 78E       0.081000
     13 C20          5.1620     1.4830     0.1240 ce         1 78E      -0.183000
     14 O1           3.9880    -2.8910    -0.3920 os         1 78E      -0.444100
     15 C21          4.8720     2.3190     1.1260 c2         1 78E      -0.206200
     16 O2           2.8930    -4.2770    -1.7640 o          1 78E      -0.474000
     17 O5          -0.7810     5.1190    -0.3310 o          1 78E      -0.611100
     18 C22          4.2800     3.6800     0.9580 c3         1 78E      -0.040200
     19 C23          2.7930     3.6610     1.3210 c3         1 78E      -0.083400
     20 C29          2.1180     5.0240     1.2300 c3         1 78E      -0.069400
     21 C30          0.6290     4.9930     1.6060 c3         1 78E      -0.157400
     22 N4          -0.3320     3.0700     0.4940 ns         1 78E      -0.503900
     23 C10         -1.0520     2.3260    -0.5100 c3         1 78E       0.045700
     24 C9          -1.2410     0.9160     0.0340 c          1 78E       0.595100
     25 O4          -0.4620     0.4330     0.8440 o          1 78E      -0.630100
     26 C11         -0.3130     2.3050    -1.8750 c3         1 78E      -0.073700
     27 C13          0.9780     1.4950    -1.8480 c3         1 78E      -0.096100
     28 C12         -1.2220     1.8470    -3.0120 c3         1 78E      -0.096100
     29 N3          -2.2870     0.2310    -0.4500 ns         1 78E      -0.477900
     30 C7          -2.4320    -1.1810    -0.1760 c3         1 78E       0.036700
     31 C8          -3.7870    -1.6890    -0.6780 c3         1 78E      -0.042100
     32 C14         -4.9330    -1.0220     0.0310 ca         1 78E      -0.046300
     33 C28         -5.2800    -1.4150     1.3230 ca         1 78E      -0.146000
     34 C27         -6.3120    -0.7700     1.9860 ca         1 78E      -0.064000
     35 C24         -5.6320     0.0110    -0.5800 ca         1 78E      -0.144000
     36 C25         -6.6690     0.6590     0.0910 ca         1 78E       0.145100
     37 C26         -7.0100     0.2670     1.3820 ca         1 78E      -0.204000
     38 O6          -7.3050     1.6540    -0.5590 oh         1 78E      -0.532100
     39 C6          -1.3050    -1.9340    -0.8920 c          1 78E       0.606100
     40 O3          -1.0920    -1.7000    -2.0670 o          1 78E      -0.561100
     41 H1           0.3740    -4.4230    -0.8540 hn         1 78E       0.436000
     42 H2           0.0910    -5.0310     1.3540 hc         1 78E       0.054700
     43 H3           0.2100    -4.1250     2.8380 hc         1 78E       0.054700
     44 H4           1.6990    -1.9480    -0.0510 h1         1 78E       0.110700
     45 H6           5.1390    -2.9910    -2.1160 h1         1 78E       0.051700
     46 H7           5.5510    -4.1750    -0.8670 h1         1 78E       0.051700
     47 H9           5.7330    -0.4240    -1.6990 ha         1 78E       0.172000
     48 H12          6.4090    -2.3770     0.6020 hc         1 78E       0.056700
     49 H13          7.2060    -2.3820    -0.9610 hc         1 78E       0.056700
     50 H18          5.7380    -0.2110     1.3500 ha         1 78E       0.168000
     51 H19          2.0530    -2.8020     2.0470 hc         1 78E       0.060200
     52 H20          2.3900    -4.4250     1.4800 hc         1 78E       0.060200
     53 H21         -1.7560    -3.4490     1.5040 h1         1 78E       0.055700
     54 H22         -0.6450    -2.1090     1.8020 h1         1 78E       0.055700
     55 H26          5.0230     1.8150    -0.9020 ha         1 78E       0.171000
     56 H27          5.0030     1.9730     2.1490 ha         1 78E       0.166000
     57 H31          4.7990     4.4020     1.5960 hc         1 78E       0.046700
     58 H32          4.4000     4.0220    -0.0740 hc         1 78E       0.046700
     59 H33          2.3000     2.9500     0.6550 hc         1 78E       0.044200
     60 H34          2.6690     3.2680     2.3350 hc         1 78E       0.044200
     61 H39          2.6220     5.7180     1.9070 hc         1 78E       0.049700
     62 H40          2.2380     5.4380     0.2250 hc         1 78E       0.049700
     63 H41          0.2800     6.0090     1.7920 hc         1 78E       0.063700
     64 H42          0.5030     4.4330     2.5370 hc         1 78E       0.063700
     65 H29          0.1260     2.5330     1.2150 hn         1 78E       0.337500
     66 H8          -2.0310     2.7920    -0.6640 h1         1 78E       0.077700
     67 H14         -0.0590     3.3490    -2.0680 hc         1 78E       0.071700
     68 H15          0.7830     0.4240    -1.7800 hc         1 78E       0.041533
     69 H16          1.5420     1.6650    -2.7660 hc         1 78E       0.041533
     70 H17          1.6270     1.7720    -1.0160 hc         1 78E       0.041533
     71 H23         -2.1700     2.3900    -3.0120 hc         1 78E       0.041533
     72 H24         -0.7410     2.0380    -3.9720 hc         1 78E       0.041533
     73 H25         -1.4330     0.7790    -2.9640 hc         1 78E       0.041533
     74 H28         -2.8550     0.6460    -1.1710 hn         1 78E       0.332500
     75 H5          -2.3940    -1.3160     0.9040 h1         1 78E       0.079700
     76 H10         -3.8570    -1.5350    -1.7580 hc         1 78E       0.069700
     77 H11         -3.8240    -2.7680    -0.5120 hc         1 78E       0.069700
     78 H38         -4.7480    -2.2260     1.8050 ha         1 78E       0.112000
     79 H37         -6.5830    -1.0750     2.9890 ha         1 78E       0.114000
     80 H35         -5.3840     0.3190    -1.5890 ha         1 78E       0.126000
     81 H36         -7.8150     0.7620     1.9120 ha         1 78E       0.115000
     82 H30         -7.9930     2.0340    -0.0010 ho         1 78E       0.467000
@<TRIPOS>BOND
     1     1     3 1   
     2     1     4 1   
     3     1    41 1   
     4     2    11 1   
     5     2    12 1   
     6     2    42 1   
     7     2    43 1   
     8     3    12 1   
     9     3    39 1   
    10     4     5 1   
    11     4    11 1   
    12     4    44 1   
    13     5    14 1   
    14     5    16 2   
    15     6     9 1   
    16     6    14 1   
    17     6    45 1   
    18     6    46 1   
    19     7     9 1   
    20     7    10 2   
    21     7    47 1   
    22     8    17 2   
    23     8    21 1   
    24     8    22 1   
    25     9    48 1   
    26     9    49 1   
    27    10    13 1   
    28    10    50 1   
    29    11    51 1   
    30    11    52 1   
    31    12    53 1   
    32    12    54 1   
    33    13    15 2   
    34    13    55 1   
    35    15    18 1   
    36    15    56 1   
    37    18    19 1   
    38    18    57 1   
    39    18    58 1   
    40    19    20 1   
    41    19    59 1   
    42    19    60 1   
    43    20    21 1   
    44    20    61 1   
    45    20    62 1   
    46    21    63 1   
    47    21    64 1   
    48    22    23 1   
    49    22    65 1   
    50    23    24 1   
    51    23    26 1   
    52    23    66 1   
    53    24    25 2   
    54    24    29 1   
    55    26    27 1   
    56    26    28 1   
    57    26    67 1   
    58    27    68 1   
    59    27    69 1   
    60    27    70 1   
    61    28    71 1   
    62    28    72 1   
    63    28    73 1   
    64    29    30 1   
    65    29    74 1   
    66    30    31 1   
    67    30    39 1   
    68    30    75 1   
    69    31    32 1   
    70    31    76 1   
    71    31    77 1   
    72    32    33 ar  
    73    32    35 ar  
    74    33    34 ar  
    75    33    78 1   
    76    34    37 ar  
    77    34    79 1   
    78    35    36 ar  
    79    35    80 1   
    80    36    37 ar  
    81    36    38 1   
    82    37    81 1   
    83    38    82 1   
    84    39    40 2   
@<TRIPOS>SUBSTRUCTURE
     1 78E         1 TEMP              0 ****  ****    0 ROOT
