@<TRIPOS>MOLECULE
78F
   61    61     1     0     0
SMALL
bcc


@<TRIPOS>ATOM
      1 C1           6.5810     1.3150     0.5950 c3         1 78F      -0.205700
      2 C2           5.6800     0.2080     0.0470 c3         1 78F       0.170100
      3 C3           4.2210     0.2900     0.5280 c3         1 78F      -0.066700
      4 C4           3.3940    -0.9140     0.0590 c3         1 78F       0.170300
      5 C5           1.9920    -0.8670     0.5890 c2         1 78F      -0.143200
      6 C6          -7.8280    -0.9220    -0.2090 c6         1 78F      -0.065400
      7 C7          -9.2480    -1.2220     0.2620 c6         1 78F      -0.113400
      8 C8         -10.1710    -0.0380    -0.0090 c6         1 78F       0.142800
      9 N2          -9.6290     1.2120     0.4970 n7         1 78F      -0.539000
     10 N3          -8.3620     1.4370    -0.0830 n7         1 78F      -0.574000
     11 C9          -7.3780     0.4470     0.3170 c6         1 78F       0.074500
     12 C10         -6.0220     0.8240    -0.2370 c          1 78F       0.645100
     13 O1          -5.1010    -0.0560     0.1240 os         1 78F      -0.433900
     14 O2          -5.7970     1.7940    -0.9160 o          1 78F      -0.519000
     15 C25         -3.7580     0.1260    -0.3430 c3         1 78F       0.145400
     16 C26         -2.9490    -1.0630     0.1450 c3         1 78F      -0.042200
     17 C27         -1.5550    -1.0210    -0.3910 c2         1 78F      -0.198200
     18 C28         -0.4570    -0.9290     0.3640 ce         1 78F      -0.096000
     19 C29          0.8940    -0.9290    -0.1680 ce         1 78F      -0.167000
     20 C30          8.0160     1.1430     0.0550 c          1 78F       0.934600
     21 O6           8.5640     0.0390     0.2610 o          1 78F      -0.842300
     22 C31          6.6110     1.3250     2.1230 c3         1 78F      -0.060100
     23 C32          3.5470     1.5940     0.1120 c3         1 78F      -0.079100
     24 O7           4.0340    -2.0890     0.5270 os         1 78F      -0.394600
     25 O8           5.7200     0.2740    -1.3730 os         1 78F      -0.414600
     26 C33          3.5720    -3.2710    -0.0760 c3         1 78F       0.124700
     27 C34          6.1450    -0.9000    -2.0180 c3         1 78F       0.134700
     28 H1           6.2080     2.2850     0.2510 hc         1 78F       0.043700
     29 H2           6.1030    -0.7430     0.3870 h1         1 78F       0.069700
     30 H3           4.2330     0.2480     1.6240 hc         1 78F       0.053700
     31 H4           3.3560    -0.9200    -1.0420 h1         1 78F       0.047700
     32 H5           1.8910    -0.8020     1.6720 ha         1 78F       0.122000
     33 H9          -9.6240    -2.1230    -0.2270 hc         1 78F       0.044200
     34 H10         -9.2370    -1.4280     1.3380 hc         1 78F       0.044200
     35 H11        -10.3330     0.0760    -1.0840 h1         1 78F       0.062700
     36 H12        -11.1470    -0.1970     0.4530 h1         1 78F       0.062700
     37 H13         -8.0700     2.3720     0.1640 hn         1 78F       0.389800
     38 H14         -7.2730     0.3810     1.4150 h1         1 78F       0.045700
     39 H32         -3.7470     0.1810    -1.4350 h1         1 78F       0.054200
     40 H33         -3.3500     1.0600     0.0480 h1         1 78F       0.054200
     41 H34         -2.9360    -1.0820     1.2370 hc         1 78F       0.053200
     42 H35         -3.4370    -1.9820    -0.1940 hc         1 78F       0.053200
     43 H36         -1.4470    -1.0820    -1.4720 ha         1 78F       0.122000
     44 H37         -0.5580    -0.8680     1.4450 ha         1 78F       0.116000
     45 H38          0.9980    -0.9970    -1.2490 ha         1 78F       0.122000
     46 H39          7.3560     2.0320     2.4920 hc         1 78F       0.013367
     47 H40          5.6530     1.6230     2.5530 hc         1 78F       0.013367
     48 H41          6.8640     0.3410     2.5220 hc         1 78F       0.013367
     49 H42          2.5260     1.6540     0.4890 hc         1 78F       0.031700
     50 H43          4.0840     2.4580     0.5020 hc         1 78F       0.031700
     51 H44          3.5020     1.6920    -0.9740 hc         1 78F       0.031700
     52 H45          4.1480    -4.1000     0.3350 h1         1 78F       0.021367
     53 H46          2.5110    -3.4580     0.1180 h1         1 78F       0.021367
     54 H47          3.7150    -3.2570    -1.1640 h1         1 78F       0.021367
     55 H48          7.1270    -1.2300    -1.6670 h1         1 78F       0.018700
     56 H49          5.4420    -1.7300    -1.8940 h1         1 78F       0.018700
     57 H50          6.2180    -0.6830    -3.0850 h1         1 78F       0.018700
     58 H6          -9.5400     1.1300     1.5110 hn         1 78F       0.314800
     59 OXT          8.5370     2.1270    -0.5100 o          1 78F      -0.842300
     60 H7          -7.1440    -1.7010     0.1300 hc         1 78F       0.061200
     61 H8          -7.7950    -0.9060    -1.3020 hc         1 78F       0.061200
@<TRIPOS>BOND
     1     1     2 1   
     2     1    20 1   
     3     1    22 1   
     4     1    28 1   
     5     2     3 1   
     6     2    25 1   
     7     2    29 1   
     8     3     4 1   
     9     3    23 1   
    10     3    30 1   
    11     4     5 1   
    12     4    24 1   
    13     4    31 1   
    14     5    19 2   
    15     5    32 1   
    16     6     7 1   
    17     6    11 1   
    18     6    60 1   
    19     6    61 1   
    20     7     8 1   
    21     7    33 1   
    22     7    34 1   
    23     8     9 1   
    24     8    35 1   
    25     8    36 1   
    26     9    10 1   
    27     9    58 1   
    28    10    11 1   
    29    10    37 1   
    30    11    12 1   
    31    11    38 1   
    32    12    13 1   
    33    12    14 2   
    34    13    15 1   
    35    15    16 1   
    36    15    39 1   
    37    15    40 1   
    38    16    17 1   
    39    16    41 1   
    40    16    42 1   
    41    17    18 2   
    42    17    43 1   
    43    18    19 1   
    44    18    44 1   
    45    19    45 1   
    46    20    21 1   
    47    20    59 1   
    48    22    46 1   
    49    22    47 1   
    50    22    48 1   
    51    23    49 1   
    52    23    50 1   
    53    23    51 1   
    54    24    26 1   
    55    25    27 1   
    56    26    52 1   
    57    26    53 1   
    58    26    54 1   
    59    27    55 1   
    60    27    56 1   
    61    27    57 1   
@<TRIPOS>SUBSTRUCTURE
     1 78F         1 TEMP              0 ****  ****    0 ROOT
