@<TRIPOS>MOLECULE
78F
   61    61     1     0     0
SMALL
No Charge or Current Charge


@<TRIPOS>ATOM
      1 C1           6.4410     1.5090     0.6360 c3         1 78F      -0.205700
      2 C2           5.6260     0.2850     0.1270 c3         1 78F       0.193300
      3 C3           4.0880     0.3100     0.4200 c3         1 78F      -0.066700
      4 C4           3.3760    -1.0670    -0.0000 c3         1 78F       0.193500
      5 C5           1.8750    -1.1670     0.3310 c2         1 78F      -0.193200
      6 C6          -7.7030    -0.8530     0.2940 c6         1 78F      -0.065400
      7 C7          -9.2160    -1.0800     0.5530 c6         1 78F      -0.113400
      8 C8         -10.0560     0.0710    -0.0530 c6         1 78F       0.142800
      9 N2          -9.5730     1.3760     0.4670 n7         1 78F      -0.594200
     10 N3          -8.1890     1.5910     0.0260 n7         1 78F      -0.629200
     11 C9          -7.2700     0.5960     0.6850 c6         1 78F       0.074500
     12 C10         -5.7570     0.9050     0.4000 c          1 78F       0.596100
     13 O1          -5.0150    -0.1720    -0.0250 os         1 78F      -0.457100
     14 O2          -5.2840     2.0260     0.5570 o          1 78F      -0.470000
     15 C25         -3.6190     0.0330    -0.3050 c3         1 78F       0.168600
     16 C26         -3.0290    -1.3170    -0.7570 c3         1 78F      -0.042200
     17 C27         -1.5530    -1.2230    -1.0880 c2         1 78F      -0.248200
     18 C28         -0.5470    -1.2460    -0.1890 ce         1 78F      -0.146000
     19 C29          0.8650    -1.1480    -0.5650 ce         1 78F      -0.217000
     20 C30          7.9380     1.3140     0.3230 c          1 78F       0.724000
     21 O6           8.5290     0.3790     0.8440 o          1 78F      -0.737000
     22 C31          6.2470     1.8000     2.1470 c3         1 78F      -0.060100
     23 C32          3.3600     1.5320    -0.2040 c3         1 78F      -0.079100
     24 O7           4.0210    -2.2190     0.6360 os         1 78F      -0.441000
     25 O8           5.8080     0.2270    -1.3050 os         1 78F      -0.461000
     26 C33          3.6690    -3.5050     0.0940 c3         1 78F       0.147900
     27 C34          6.3450    -1.0080    -1.8120 c3         1 78F       0.157900
     28 H1           6.1060     2.3970     0.0890 hc         1 78F       0.043700
     29 H2           6.0430    -0.6100     0.6120 h1         1 78F       0.069700
     30 H3           3.9610     0.3840     1.5050 hc         1 78F       0.053700
     31 H4           3.4820    -1.1540    -1.0900 h1         1 78F       0.047700
     32 H5           1.6690    -1.2590     1.3980 ha         1 78F       0.172000
     33 H9          -9.5320    -2.0420     0.1270 hc         1 78F       0.044200
     34 H10         -9.4010    -1.1400     1.6340 hc         1 78F       0.044200
     35 H11         -9.9810     0.0540    -1.1510 h1         1 78F       0.062700
     36 H12        -11.1160    -0.0650     0.2100 h1         1 78F       0.062700
     37 H13         -7.8550     2.5670     0.1540 hn         1 78F       0.445000
     38 H14         -7.3710     0.6950     1.7760 h1         1 78F       0.045700
     39 H32         -3.4850     0.7760    -1.1030 h1         1 78F       0.054200
     40 H33         -3.0870     0.3830     0.5900 h1         1 78F       0.054200
     41 H34         -3.1900    -2.0590     0.0350 hc         1 78F       0.053200
     42 H35         -3.5850    -1.6710    -1.6340 hc         1 78F       0.053200
     43 H36         -1.3380    -1.1280    -2.1540 ha         1 78F       0.172000
     44 H37         -0.7690    -1.3410     0.8770 ha         1 78F       0.166000
     45 H38          1.0850    -1.0540    -1.6310 ha         1 78F       0.172000
     46 H39          6.9230     2.6000     2.4710 hc         1 78F       0.013367
     47 H40          5.2230     2.1290     2.3600 hc         1 78F       0.013367
     48 H41          6.4570     0.9080     2.7500 hc         1 78F       0.013367
     49 H42          2.2990     1.5350     0.0730 hc         1 78F       0.031700
     50 H43          3.7890     2.4750     0.1510 hc         1 78F       0.031700
     51 H44          3.4230     1.5120    -1.2980 hc         1 78F       0.031700
     52 H45          4.2430    -4.2960     0.5920 h1         1 78F       0.021367
     53 H46          2.6020    -3.7180     0.2390 h1         1 78F       0.021367
     54 H47          3.8900    -3.5480    -0.9810 h1         1 78F       0.021367
     55 H48          7.3370    -1.2050    -1.3850 h1         1 78F       0.018700
     56 H49          5.6890    -1.8530    -1.5700 h1         1 78F       0.018700
     57 H50          6.4470    -0.9580    -2.9040 h1         1 78F       0.018700
     58 H6          -9.6710     1.3940     1.4960 hn         1 78F       0.370000
     59 OXT          8.4910     2.1390    -0.3910 o          1 78F      -0.737000
     60 H7          -7.1160    -1.5920     0.8570 hc         1 78F       0.061200
     61 H8          -7.4890    -1.0260    -0.7700 hc         1 78F       0.061200
@<TRIPOS>BOND
     1     1     2 1   
     2     1    20 1   
     3     1    22 1   
     4     1    28 1   
     5     2     3 1   
     6     2    25 1   
     7     2    29 1   
     8     3     4 1   
     9     3    23 1   
    10     3    30 1   
    11     4     5 1   
    12     4    24 1   
    13     4    31 1   
    14     5    19 2   
    15     5    32 1   
    16     6     7 1   
    17     6    11 1   
    18     6    60 1   
    19     6    61 1   
    20     7     8 1   
    21     7    33 1   
    22     7    34 1   
    23     8     9 1   
    24     8    35 1   
    25     8    36 1   
    26     9    10 1   
    27     9    58 1   
    28    10    11 1   
    29    10    37 1   
    30    11    12 1   
    31    11    38 1   
    32    12    13 1   
    33    12    14 2   
    34    13    15 1   
    35    15    16 1   
    36    15    39 1   
    37    15    40 1   
    38    16    17 1   
    39    16    41 1   
    40    16    42 1   
    41    17    18 2   
    42    17    43 1   
    43    18    19 1   
    44    18    44 1   
    45    19    45 1   
    46    20    21 1   
    47    20    59 1   
    48    22    46 1   
    49    22    47 1   
    50    22    48 1   
    51    23    49 1   
    52    23    50 1   
    53    23    51 1   
    54    24    26 1   
    55    25    27 1   
    56    26    52 1   
    57    26    53 1   
    58    26    54 1   
    59    27    55 1   
    60    27    56 1   
    61    27    57 1   
@<TRIPOS>SUBSTRUCTURE
     1 78F         1 TEMP              0 ****  ****    0 ROOT
