@<TRIPOS>MOLECULE
78G
   71    74     1     0     0
SMALL
No Charge or Current Charge


@<TRIPOS>ATOM
      1 N4           4.7160    -1.5660     1.9010 nc         1 78G      -0.545100
      2 C19         -4.0600     3.4720    -0.3260 c3         1 78G       0.010500
      3 C21          0.5990    -0.1100    -1.3190 c3         1 78G      -0.102400
      4 C22         -0.2830     0.9000    -0.5610 c3         1 78G       0.091600
      5 C20         -4.2590     4.5760    -1.4460 c          1 78G       0.697000
      6 N5          -1.6480     0.3390    -0.1450 nx         1 78G      -0.670000
      7 O7          -5.0060     4.3220    -2.3830 o          1 78G      -0.701500
      8 C1           7.2450    -1.5300     2.0310 ca         1 78G       0.455900
      9 C10         -1.5280    -0.7640     0.8870 c3         1 78G       0.183800
     10 C11         -2.8470    -1.4140     1.1800 cc         1 78G      -0.463800
     11 C12         -3.4460    -1.3400     2.4680 cc         1 78G       0.808500
     12 C13         -5.3250    -2.5300     1.8440 c          1 78G       0.713400
     13 C14         -3.5630    -2.1040     0.2270 cd         1 78G       0.059600
     14 C16         -6.1440    -1.3750    -1.7860 c3         1 78G       0.127900
     15 C17         -2.6150     1.4350     0.3190 c3         1 78G       0.084600
     16 C18         -3.0620     2.3900    -0.8050 c3         1 78G      -0.079400
     17 C2           5.9860    -1.1510     1.5200 ca         1 78G      -0.104600
     18 C3           5.9540    -0.2370     0.4970 ca         1 78G       0.132500
     19 C4           8.2410    -0.1200     0.5340 ca         1 78G       0.192900
     20 C5           3.9300    -0.8640     1.0630 cd         1 78G       0.395700
     21 C6           4.0890     0.8390    -0.8630 c5         1 78G       0.320300
     22 C7           1.9420     0.4910    -1.7810 c5         1 78G       0.164300
     23 C8           2.9260    -0.5120    -2.4600 c5         1 78G       0.093300
     24 C9           4.2460     0.2930    -2.3270 c5         1 78G       0.105300
     25 N1           7.0780     0.2990    -0.0190 nb         1 78G      -0.221000
     26 N10         -5.3140     2.8270     0.2100 n8         1 78G      -1.029200
     27 N2           8.3820    -1.0130     1.5420 nb         1 78G      -0.297000
     28 N3           4.6380    -0.0330     0.1760 na         1 78G      -0.311300
     29 N6           7.3830    -2.4250     3.0450 nv         1 78G      -1.059900
     30 N7          -4.5800    -1.8480     2.8020 nd         1 78G      -0.749100
     31 N8          -4.8020    -2.6460     0.5460 n          1 78G      -0.330000
     32 N9          -2.8340    -0.7340     3.4660 nv         1 78G      -1.026200
     33 O1           2.6630     0.9900    -0.6330 os         1 78G      -0.452000
     34 O2           4.2890     1.3160    -3.3340 oh         1 78G      -0.693000
     35 O3           2.6230    -0.7780    -3.8420 oh         1 78G      -0.706000
     36 O5          -6.3980    -3.0100     2.1700 o          1 78G      -0.487000
     37 H25         -3.5860     3.9880     0.5220 h1         1 78G       0.047700
     38 H29          0.7940    -0.9780    -0.6790 hc         1 78G       0.060700
     39 H30          0.0430    -0.4780    -2.1900 hc         1 78G       0.060700
     40 H32          0.2460     1.2420     0.3340 hx         1 78G       0.112700
     41 H31         -0.4400     1.7690    -1.2050 hx         1 78G       0.112700
     42 H10         -0.8300    -1.5170     0.5120 hx         1 78G       0.079200
     43 H9          -1.0920    -0.3260     1.7870 hx         1 78G       0.079200
     44 H13         -3.2480    -2.2640    -0.8010 h4         1 78G       0.188000
     45 H20         -5.5220    -1.7200    -2.6220 h1         1 78G       0.039367
     46 H19         -6.9920    -0.8160    -2.2010 h1         1 78G       0.039367
     47 H18         -5.5530    -0.6810    -1.1740 h1         1 78G       0.039367
     48 H22         -3.5050     0.9540     0.7340 hx         1 78G       0.099200
     49 H21         -2.1400     2.0060     1.1210 hx         1 78G       0.099200
     50 H23         -3.5110     1.8100    -1.6200 hc         1 78G       0.061200
     51 H24         -2.1820     2.8930    -1.2200 hc         1 78G       0.061200
     52 H1           9.1560     0.3060     0.1260 h5         1 78G       0.053100
     53 H2           2.8470    -0.9140     1.0410 h5         1 78G       0.053800
     54 H3           4.6040     1.8030    -0.7570 h2         1 78G       0.140700
     55 H4           1.7370     1.3390    -2.4510 h1         1 78G       0.096700
     56 H5           2.9870    -1.4480    -1.8860 h1         1 78G       0.052700
     57 H6           5.1230    -0.3660    -2.4110 h1         1 78G       0.082700
     58 H26         -5.9250     3.5560     0.6020 hn         1 78G       0.405000
     59 H27         -5.8630     2.4810    -0.5880 hn         1 78G       0.405000
     60 H12          8.2590    -2.4300     3.5600 hn         1 78G       0.509500
     61 H11          6.5440    -2.6560     3.5720 hn         1 78G       0.509500
     62 H14         -1.8350    -0.8620     3.4880 hn         1 78G       0.507000
     63 H15         -3.2970    -0.8990     4.3480 hn         1 78G       0.507000
     64 H7           3.7700     0.9200    -4.0800 ho         1 78G       0.529000
     65 H8           1.9590    -1.5100    -3.8680 ho         1 78G       0.526000
     66 H33         -2.0740    -0.0950    -0.9900 hn         1 78G       0.486000
     67 C15         -5.5970    -3.3570    -0.4720 c3         1 78G       0.317000
     68 O4          -6.6160    -2.4860    -1.0020 os         1 78G      -0.412000
     69 H16         -4.9220    -3.7090    -1.2610 h2         1 78G       0.071700
     70 H17         -6.0450    -4.2370     0.0050 h2         1 78G       0.071700
     71 O6          -3.7500     5.6740    -1.2710 o          1 78G      -0.701500
@<TRIPOS>BOND
     1     1    17 1   
     2     1    20 2   
     3     2     5 1   
     4     2    16 1   
     5     2    26 1   
     6     2    37 1   
     7     3     4 1   
     8     3    22 1   
     9     3    38 1   
    10     3    39 1   
    11     4     6 1   
    12     4    40 1   
    13     4    41 1   
    14     5     7 1   
    15     5    71 1   
    16     6     9 1   
    17     6    15 1   
    18     6    66 1   
    19     8    17 ar  
    20     8    27 ar  
    21     8    29 1   
    22     9    10 1   
    23     9    42 1   
    24     9    43 1   
    25    10    11 1   
    26    10    13 2   
    27    11    30 2   
    28    11    32 1   
    29    12    30 1   
    30    12    31 1   
    31    12    36 2   
    32    13    31 1   
    33    13    44 1   
    34    14    45 1   
    35    14    46 1   
    36    14    47 1   
    37    14    68 1   
    38    15    16 1   
    39    15    48 1   
    40    15    49 1   
    41    16    50 1   
    42    16    51 1   
    43    17    18 ar  
    44    18    25 ar  
    45    18    28 1   
    46    19    25 ar  
    47    19    27 ar  
    48    19    52 1   
    49    20    28 1   
    50    20    53 1   
    51    21    24 1   
    52    21    28 1   
    53    21    33 1   
    54    21    54 1   
    55    22    23 1   
    56    22    33 1   
    57    22    55 1   
    58    23    24 1   
    59    23    35 1   
    60    23    56 1   
    61    24    34 1   
    62    24    57 1   
    63    26    58 1   
    64    26    59 1   
    65    29    60 1   
    66    29    61 1   
    67    31    67 1   
    68    32    62 1   
    69    32    63 1   
    70    34    64 1   
    71    35    65 1   
    72    67    68 1   
    73    67    69 1   
    74    67    70 1   
@<TRIPOS>SUBSTRUCTURE
     1 78G         1 TEMP              0 ****  ****    0 ROOT
