@<TRIPOS>MOLECULE
78G
   71    74     1     0     0
SMALL
bcc


@<TRIPOS>ATOM
      1 N4           4.7250    -1.7320     1.6320 nc         1 78G      -0.545100
      2 C19         -3.8250     3.6490    -0.0330 c3         1 78G       0.010500
      3 C21          0.4940    -0.1820    -1.0180 c3         1 78G      -0.102400
      4 C22         -0.2750     0.8860    -0.2570 c3         1 78G       0.119800
      5 C20         -3.8830     4.8580    -1.0060 c          1 78G       0.907600
      6 N5          -1.6750     0.4740     0.0710 nx         1 78G      -0.699400
      7 O7          -4.9380     5.0310    -1.6430 o          1 78G      -0.806800
      8 C1           7.2470    -1.4340     1.8490 ca         1 78G       0.784200
      9 C10         -1.6940    -0.7000     1.0180 c3         1 78G       0.212000
     10 C11         -3.0610    -1.2560     1.2350 cc         1 78G      -0.463800
     11 C12         -3.9200    -0.9460     2.3490 cc         1 78G       0.808500
     12 C13         -5.6000    -2.3650     1.5820 c          1 78G       0.855900
     13 C14         -3.5470    -2.1830     0.3730 cd         1 78G       0.109600
     14 C16         -5.6810    -2.2060    -2.2380 c3         1 78G       0.104700
     15 C17         -2.4900     1.6220     0.5840 c3         1 78G       0.112800
     16 C18         -2.6610     2.7350    -0.4320 c3         1 78G      -0.079400
     17 C2           5.9540    -1.2010     1.3420 ca         1 78G      -0.235200
     18 C3           5.8510    -0.2360     0.3530 ca         1 78G       0.460800
     19 C4           8.0040     0.1780     0.3900 ca         1 78G       0.718900
     20 C5           3.9050    -1.1040     0.8410 cd         1 78G       0.395700
     21 C6           3.9450     0.6900    -0.9680 c5         1 78G       0.267800
     22 C7           1.7380     0.4040    -1.6550 c5         1 78G       0.141100
     23 C8           2.5910    -0.6060    -2.4150 c5         1 78G       0.070100
     24 C9           3.9700     0.0640    -2.3630 c5         1 78G       0.082100
     25 N1           6.8440     0.4830    -0.1650 nb         1 78G      -0.747000
     26 N10         -5.0440     2.8690     0.0860 n8         1 78G      -0.918800
     27 N2           8.2560    -0.7160     1.3420 nb         1 78G      -0.823000
     28 N3           4.5240    -0.1830     0.0400 na         1 78G      -0.282000
     29 N6           7.4980    -2.3320     2.8010 nv         1 78G      -0.949500
     30 N7          -5.1150    -1.4850     2.4770 nd         1 78G      -0.749100
     31 N8          -4.7650    -2.7320     0.5060 n          1 78G      -0.397000
     32 N9          -3.5300    -0.0950     3.2960 nv         1 78G      -0.915800
     33 O1           2.6030     0.9240    -0.6490 os         1 78G      -0.405600
     34 O2           4.0560     1.1060    -3.2940 oh         1 78G      -0.570800
     35 O3           2.0920    -0.7840    -3.7080 oh         1 78G      -0.583800
     36 O5          -6.7080    -2.8670     1.6650 o          1 78G      -0.562500
     37 H25         -3.5970     4.0500     0.9630 h1         1 78G       0.047700
     38 H29          0.7700    -1.0240    -0.3800 hc         1 78G       0.060700
     39 H30         -0.1230    -0.5800    -1.8280 hc         1 78G       0.060700
     40 H32          0.2040     1.1540     0.6840 hx         1 78G       0.112700
     41 H31         -0.3490     1.7830    -0.8670 hx         1 78G       0.112700
     42 H10         -1.0560    -1.4660     0.5830 hx         1 78G       0.079200
     43 H9          -1.2070    -0.3670     1.9330 hx         1 78G       0.079200
     44 H13         -2.9570    -2.5300    -0.4670 h4         1 78G       0.138000
     45 H20         -4.7890    -2.5750    -2.7560 h1         1 78G       0.039367
     46 H19         -6.4530    -2.0060    -2.9780 h1         1 78G       0.039367
     47 H18         -5.4310    -1.2600    -1.7460 h1         1 78G       0.039367
     48 H22         -3.4730     1.2320     0.8370 hx         1 78G       0.099200
     49 H21         -1.9990     1.9750     1.4920 hx         1 78G       0.099200
     50 H23         -2.8660     2.3080    -1.4210 hc         1 78G       0.061200
     51 H24         -1.7600     3.3380    -0.5190 hc         1 78G       0.061200
     52 H1           8.8670     0.7260     0.0260 h5         1 78G       0.053100
     53 H2           2.8390    -1.2660     0.8120 h5         1 78G       0.053800
     54 H3           4.5210     1.6190    -0.9440 h2         1 78G       0.140700
     55 H4           1.4420     1.2150    -2.3340 h1         1 78G       0.096700
     56 H5           2.6250    -1.5530    -1.8610 h1         1 78G       0.052700
     57 H6           4.7930    -0.6530    -2.4700 h1         1 78G       0.082700
     58 H26         -5.7650     3.4440     0.5040 hn         1 78G       0.349800
     59 H27         -5.3860     2.6610    -0.8450 hn         1 78G       0.349800
     60 H12          8.4280    -2.4370     3.1680 hn         1 78G       0.454300
     61 H11          6.7580    -2.8700     3.2160 hn         1 78G       0.454300
     62 H14         -2.6050     0.2940     3.3390 hn         1 78G       0.451800
     63 H15         -4.1300     0.0660     4.0880 hn         1 78G       0.451800
     64 H7           3.6390     0.8070    -4.1120 ho         1 78G       0.430000
     65 H8           2.4380    -1.6080    -4.0670 ho         1 78G       0.427000
     66 H33         -2.1130     0.1680    -0.8010 hn         1 78G       0.430800
     67 C15         -5.2520    -3.6970    -0.4760 c3         1 78G       0.293800
     68 O4          -6.1940    -3.1630    -1.3360 os         1 78G      -0.365600
     69 H16         -4.3730    -4.0680    -1.0130 h2         1 78G       0.071700
     70 H17         -5.7180    -4.5240     0.0530 h2         1 78G       0.071700
     71 O6          -2.8500     5.5560    -1.0650 o          1 78G      -0.806800
@<TRIPOS>BOND
     1     1    17 1   
     2     1    20 2   
     3     2     5 1   
     4     2    16 1   
     5     2    26 1   
     6     2    37 1   
     7     3     4 1   
     8     3    22 1   
     9     3    38 1   
    10     3    39 1   
    11     4     6 1   
    12     4    40 1   
    13     4    41 1   
    14     5     7 1   
    15     5    71 1   
    16     6     9 1   
    17     6    15 1   
    18     6    66 1   
    19     8    17 ar  
    20     8    27 ar  
    21     8    29 1   
    22     9    10 1   
    23     9    42 1   
    24     9    43 1   
    25    10    11 1   
    26    10    13 2   
    27    11    30 2   
    28    11    32 1   
    29    12    30 1   
    30    12    31 1   
    31    12    36 2   
    32    13    31 1   
    33    13    44 1   
    34    14    45 1   
    35    14    46 1   
    36    14    47 1   
    37    14    68 1   
    38    15    16 1   
    39    15    48 1   
    40    15    49 1   
    41    16    50 1   
    42    16    51 1   
    43    17    18 ar  
    44    18    25 ar  
    45    18    28 1   
    46    19    25 ar  
    47    19    27 ar  
    48    19    52 1   
    49    20    28 1   
    50    20    53 1   
    51    21    24 1   
    52    21    28 1   
    53    21    33 1   
    54    21    54 1   
    55    22    23 1   
    56    22    33 1   
    57    22    55 1   
    58    23    24 1   
    59    23    35 1   
    60    23    56 1   
    61    24    34 1   
    62    24    57 1   
    63    26    58 1   
    64    26    59 1   
    65    29    60 1   
    66    29    61 1   
    67    31    67 1   
    68    32    62 1   
    69    32    63 1   
    70    34    64 1   
    71    35    65 1   
    72    67    68 1   
    73    67    69 1   
    74    67    70 1   
@<TRIPOS>SUBSTRUCTURE
     1 78G         1 TEMP              0 ****  ****    0 ROOT
