@<TRIPOS>MOLECULE
78H
   36    38     1     0     0
SMALL
abcg2


@<TRIPOS>ATOM
      1 O4          -2.9400    -2.5640     0.5130 o          1 78H      -0.524000
      2 C4          -3.5440    -1.5240     0.2820 c          1 78H       0.616200
      3 C5          -3.0140    -0.2100     0.2060 cc         1 78H      -0.198600
      4 N3          -4.9270    -1.5710     0.0590 ns         1 78H      -0.452400
      5 C9          -3.8700     0.8500    -0.0970 cd         1 78H       0.446600
      6 N5          -1.6430    -0.0200     0.2840 ne         1 78H      -0.478300
      7 C2          -5.6810    -0.4920    -0.2570 cc         1 78H       0.760800
      8 N8          -3.3430     2.0790    -0.2070 nu         1 78H      -0.796200
      9 N1          -5.1850     0.7200    -0.3420 nd         1 78H      -0.775300
     10 C6          -1.1790     1.1600     0.3050 c2         1 78H       0.339300
     11 N2          -6.9870    -0.6850    -0.4600 nv         1 78H      -1.057200
     12 C7          -2.0460     2.3900     0.3490 c6         1 78H       0.149500
     13 C10          0.3010     1.3920     0.3280 c3         1 78H       0.204500
     14 N11          1.0110     0.1650     0.5300 nu         1 78H      -0.970200
     15 C15          2.3480     0.0420     0.2760 ca         1 78H       0.286000
     16 C16          2.9300    -1.2330     0.1780 ca         1 78H      -0.213500
     17 C17          3.1880     1.1550     0.1300 ca         1 78H      -0.213500
     18 C18          4.2830    -1.3770    -0.0570 ca         1 78H      -0.052000
     19 C19          4.5440     0.9860    -0.1080 ca         1 78H      -0.052000
     20 C20          5.1250    -0.2740    -0.2080 ca         1 78H      -0.170600
     21 C21          6.6070    -0.4430    -0.4670 c          1 78H       0.714600
     22 O22          7.0410    -1.6120    -0.5310 o          1 78H      -0.731000
     23 O23          7.2810     0.6000    -0.5970 o          1 78H      -0.731000
     24 H3          -5.3610    -2.4830     0.1170 hn         1 78H       0.320500
     25 H21N        -7.3760    -1.6060    -0.5600 hn         1 78H       0.503000
     26 H22N        -7.5400     0.0880    -0.7880 hn         1 78H       0.503000
     27 H71         -1.5930     3.2000    -0.2250 h1         1 78H       0.049700
     28 H72         -2.1170     2.7430     1.3880 h1         1 78H       0.049700
     29 H101         0.5820     1.8830    -0.6170 h1         1 78H       0.035200
     30 H102         0.5270     2.1250     1.1140 h1         1 78H       0.035200
     31 H11          0.4410    -0.6610     0.4100 hn         1 78H       0.494000
     32 H16          2.3030    -2.1110     0.2870 ha         1 78H       0.085000
     33 H17          2.7870     2.1580     0.2070 ha         1 78H       0.085000
     34 H18          4.6980    -2.3740    -0.1320 ha         1 78H       0.121500
     35 H19          5.1670     1.8650    -0.2180 ha         1 78H       0.121500
     36 HN8         -3.9750     2.8410    -0.3950 hn         1 78H       0.497000
@<TRIPOS>BOND
     1     1     2 2   
     2     2     3 1   
     3     2     4 1   
     4     3     5 2   
     5     3     6 1   
     6     4     7 1   
     7     4    24 1   
     8     5     8 1   
     9     5     9 1   
    10     6    10 2   
    11     7     9 2   
    12     7    11 1   
    13     8    12 1   
    14     8    36 1   
    15    10    12 1   
    16    10    13 1   
    17    11    25 1   
    18    11    26 1   
    19    12    27 1   
    20    12    28 1   
    21    13    14 1   
    22    13    29 1   
    23    13    30 1   
    24    14    15 1   
    25    14    31 1   
    26    15    16 ar  
    27    15    17 ar  
    28    16    18 ar  
    29    16    32 1   
    30    17    19 ar  
    31    17    33 1   
    32    18    20 ar  
    33    18    34 1   
    34    19    20 ar  
    35    19    35 1   
    36    20    21 1   
    37    21    22 1   
    38    21    23 1   
@<TRIPOS>SUBSTRUCTURE
     1 78H         1 TEMP              0 ****  ****    0 ROOT
