@<TRIPOS>MOLECULE
78H
   36    38     1     0     0
SMALL
No Charge or Current Charge


@<TRIPOS>ATOM
      1 O4          -3.1840    -2.6330    -0.5960 o          1 78H      -0.524000
      2 C4          -3.7870    -1.5980    -0.3500 c          1 78H       0.616200
      3 C5          -3.1730    -0.2640    -0.1960 cc         1 78H      -0.198600
      4 N3          -5.1230    -1.5860    -0.1890 ns         1 78H      -0.452400
      5 C9          -3.9980     0.8170     0.0870 cd         1 78H       0.446600
      6 N5          -1.7810    -0.0910    -0.3280 ne         1 78H      -0.478300
      7 C2          -5.8140    -0.4790     0.0910 cc         1 78H       0.760800
      8 N8          -3.5310     2.0720     0.2470 nu         1 78H      -0.796200
      9 N1          -5.3590     0.7290     0.2470 nd         1 78H      -0.775300
     10 C6          -1.2410     1.0910    -0.1180 c2         1 78H       0.339300
     11 N2          -7.1150    -0.6220     0.2250 nv         1 78H      -1.057200
     12 C7          -2.0650     2.3430     0.2670 c6         1 78H       0.149500
     13 C10          0.2730     1.3110    -0.2680 c3         1 78H       0.204500
     14 N11          1.1030     0.1700     0.2090 nu         1 78H      -0.970200
     15 C15          2.4890     0.0600     0.1530 ca         1 78H       0.286000
     16 C16          3.0740    -1.2060     0.2770 ca         1 78H      -0.213500
     17 C17          3.3100     1.1860    -0.0180 ca         1 78H      -0.213500
     18 C18          4.4710    -1.3550     0.2260 ca         1 78H      -0.052000
     19 C19          4.7080     1.0450    -0.0700 ca         1 78H      -0.052000
     20 C20          5.3090    -0.2300     0.0510 ca         1 78H      -0.170600
     21 C21          6.8190    -0.3860    -0.0040 c          1 78H       0.714600
     22 O22          7.2970    -1.5060     0.1070 o          1 78H      -0.731000
     23 O23          7.5060     0.6140    -0.1560 o          1 78H      -0.731000
     24 H3          -5.6000    -2.4680    -0.2560 hn         1 78H       0.320500
     25 H21N        -7.5500    -1.3240    -0.3600 hn         1 78H       0.503000
     26 H22N        -7.6050     0.2640     0.2590 hn         1 78H       0.503000
     27 H71         -1.8250     3.1570    -0.4330 h1         1 78H       0.049700
     28 H72         -1.7580     2.6760     1.2690 h1         1 78H       0.049700
     29 H101         0.4910     1.5000    -1.3280 h1         1 78H       0.035200
     30 H102         0.5550     2.2180     0.2850 h1         1 78H       0.035200
     31 H11          0.6020    -0.7150     0.3220 hn         1 78H       0.494000
     32 H16          2.4490    -2.0850     0.4120 ha         1 78H       0.085000
     33 H17          2.8770     2.1770    -0.1110 ha         1 78H       0.085000
     34 H18          4.9000    -2.3510     0.3240 ha         1 78H       0.121500
     35 H19          5.3230     1.9330    -0.2040 ha         1 78H       0.121500
     36 HN8         -4.2050     2.7380     0.6230 hn         1 78H       0.497000
@<TRIPOS>BOND
     1     1     2 2   
     2     2     3 1   
     3     2     4 1   
     4     3     5 2   
     5     3     6 1   
     6     4     7 1   
     7     4    24 1   
     8     5     8 1   
     9     5     9 1   
    10     6    10 2   
    11     7     9 2   
    12     7    11 1   
    13     8    12 1   
    14     8    36 1   
    15    10    12 1   
    16    10    13 1   
    17    11    25 1   
    18    11    26 1   
    19    12    27 1   
    20    12    28 1   
    21    13    14 1   
    22    13    29 1   
    23    13    30 1   
    24    14    15 1   
    25    14    31 1   
    26    15    16 ar  
    27    15    17 ar  
    28    16    18 ar  
    29    16    32 1   
    30    17    19 ar  
    31    17    33 1   
    32    18    20 ar  
    33    18    34 1   
    34    19    20 ar  
    35    19    35 1   
    36    20    21 1   
    37    21    22 1   
    38    21    23 1   
@<TRIPOS>SUBSTRUCTURE
     1 78H         1 TEMP              0 ****  ****    0 ROOT
