@<TRIPOS>MOLECULE
78I
   16    16     1     0     0
SMALL
No Charge or Current Charge


@<TRIPOS>ATOM
      1 O1          13.7820   -18.1680    -1.5780 o          1 78I      -0.717500
      2 C2          12.7380   -17.7070    -1.1290 c          1 78I       0.694000
      3 O3          11.6390   -17.9500    -1.6100 o          1 78I      -0.717500
      4 C4          12.8440   -16.6350     0.0180 c3         1 78I       0.057300
      5 O5          14.0720   -15.8540    -0.0870 oh         1 78I      -0.694000
      6 C6          12.7280   -17.2340     1.4360 cx         1 78I       0.157000
      7 O7          12.8260   -16.2650     2.4370 oh         1 78I      -0.630000
      8 C9          11.8140   -18.3980     1.7490 cx         1 78I      -0.176900
      9 C8          13.3110   -18.5850     1.7860 cx         1 78I      -0.176900
     10 H2          11.9840   -15.9660    -0.1170 h1         1 78I       0.044700
     11 H3          14.7050   -16.4340    -0.5740 ho         1 78I       0.468000
     12 H4          13.4050   -15.5760     2.0420 ho         1 78I       0.412000
     13 H5          11.2820   -18.3850     2.6970 hc         1 78I       0.070200
     14 H6          11.2660   -18.8660     0.9360 hc         1 78I       0.070200
     15 H7          13.7660   -19.1780     0.9970 hc         1 78I       0.070200
     16 H8          13.7820   -18.6990     2.7590 hc         1 78I       0.070200
@<TRIPOS>BOND
     1     1     2 1   
     2     2     3 1   
     3     2     4 1   
     4     4     5 1   
     5     4     6 1   
     6     4    10 1   
     7     5    11 1   
     8     6     7 1   
     9     6     8 1   
    10     6     9 1   
    11     7    12 1   
    12     8     9 1   
    13     8    13 1   
    14     8    14 1   
    15     9    15 1   
    16     9    16 1   
@<TRIPOS>SUBSTRUCTURE
     1 78I         1 TEMP              0 ****  ****    0 ROOT
