@<TRIPOS>MOLECULE
78I
   16    16     1     0     0
SMALL
bcc


@<TRIPOS>ATOM
      1 O1          13.6140   -18.0750    -1.7480 o          1 78I      -0.822800
      2 C2          12.5630   -17.7630    -1.1420 c          1 78I       0.904600
      3 O3          11.4560   -18.3150    -1.2140 o          1 78I      -0.822800
      4 C4          12.7640   -16.6370    -0.0920 c3         1 78I       0.034100
      5 O5          13.9640   -15.9640    -0.3830 oh         1 78I      -0.631800
      6 C6          12.7910   -17.1250     1.3430 cx         1 78I       0.133800
      7 O7          12.8580   -16.0120     2.1900 oh         1 78I      -0.567800
      8 C9          12.0500   -18.3340     1.8080 cx         1 78I      -0.176900
      9 C8          13.5590   -18.3590     1.6960 cx         1 78I      -0.176900
     10 H2          11.9230   -15.9340    -0.1880 h1         1 78I       0.044700
     11 H3          14.3690   -16.5660    -1.0370 ho         1 78I       0.429000
     12 H4          12.7940   -16.3040     3.1040 ho         1 78I       0.373000
     13 H5          11.6290   -18.3010     2.8070 hc         1 78I       0.070200
     14 H6          11.4650   -18.9080     1.1050 hc         1 78I       0.070200
     15 H7          14.0080   -18.9420     0.9010 hc         1 78I       0.070200
     16 H8          14.1370   -18.3600     2.6130 hc         1 78I       0.070200
@<TRIPOS>BOND
     1     1     2 1   
     2     2     3 1   
     3     2     4 1   
     4     4     5 1   
     5     4     6 1   
     6     4    10 1   
     7     5    11 1   
     8     6     7 1   
     9     6     8 1   
    10     6     9 1   
    11     7    12 1   
    12     8     9 1   
    13     8    13 1   
    14     8    14 1   
    15     9    15 1   
    16     9    16 1   
@<TRIPOS>SUBSTRUCTURE
     1 78I         1 TEMP              0 ****  ****    0 ROOT
