@<TRIPOS>MOLECULE
78J
   57    60     1     0     0
SMALL
No Charge or Current Charge


@<TRIPOS>ATOM
      1 C01          5.8180     3.1320    -0.5120 c3         1 78J      -0.041900
      2 C05          4.8120     2.0510    -0.1900 cc         1 78J      -0.162400
      3 C06          4.9010     1.2130     0.9090 cd         1 78J      -0.108200
      4 C08          3.8890     0.1850     1.1640 ca         1 78J      -0.063800
      5 C09          3.9570    -0.6830     2.2650 ca         1 78J      -0.165000
      6 C11          2.9470    -1.6450     2.4420 ca         1 78J       0.350900
      7 N13          1.8950    -1.7760     1.6030 nb         1 78J      -0.726000
      8 C14          1.8270    -0.9440     0.5490 ca         1 78J       0.592900
      9 N15          0.7030    -1.1040    -0.2550 nu         1 78J      -0.916100
     10 C17         -0.3140    -2.1780    -0.1330 c6         1 78J       0.227500
     11 C19          0.2300    -3.4960    -0.7410 c6         1 78J      -0.140400
     12 C22         -0.8290    -4.6170    -0.6480 c6         1 78J       0.152800
     13 N25         -2.0840    -4.2180    -1.3270 n7         1 78J      -0.844400
     14 C27         -2.6550    -2.9480    -0.7910 c6         1 78J       0.122800
     15 C30         -1.6370    -1.7670    -0.8560 c6         1 78J       0.133300
     16 O32         -2.1720    -0.5480    -0.2800 os         1 78J      -0.444000
     17 C33         -3.3040     0.0530    -0.9340 c3         1 78J       0.165600
     18 C36         -3.6640     1.3830    -0.2140 c6         1 78J      -0.062700
     19 C38         -4.7790     2.1480    -0.9810 c6         1 78J      -0.069400
     20 C41         -5.1420     3.4810    -0.2790 c6         1 78J      -0.073400
     21 C44         -5.5560     3.2450     1.1930 c6         1 78J      -0.075400
     22 C47         -4.4510     2.4870     1.9680 c6         1 78J      -0.073400
     23 C50         -4.0850     1.1540     1.2680 c6         1 78J      -0.069400
     24 C53          2.8070     0.0530     0.2830 ca         1 78J      -0.006400
     25 N54          2.7710     0.9250    -0.8380 ns         1 78J      -0.364100
     26 C56          3.6760     1.9130    -1.1540 c          1 78J       0.554200
     27 O57          3.5280     2.5970    -2.1560 o          1 78J      -0.557000
     28 H011         6.2910     2.9520    -1.4850 hc         1 78J       0.051367
     29 H012         5.3390     4.1180    -0.5460 hc         1 78J       0.051367
     30 H013         6.6140     3.1770     0.2410 hc         1 78J       0.051367
     31 H06          5.7350     1.3220     1.5970 ha         1 78J       0.190000
     32 H09          4.7760    -0.6230     2.9760 ha         1 78J       0.128000
     33 H11          2.9800    -2.3310     3.2880 h4         1 78J       0.021100
     34 H15          0.3980    -0.2540    -0.7160 hn         1 78J       0.468000
     35 H17         -0.5670    -2.3520     0.9260 h1         1 78J       0.102700
     36 H191         0.5160    -3.3400    -1.7900 hc         1 78J       0.051700
     37 H192         1.1380    -3.8140    -0.2120 hc         1 78J       0.051700
     38 H30         -1.4050    -1.5670    -1.9130 h1         1 78J       0.023700
     39 H221        -0.4350    -5.5370    -1.1060 h1         1 78J       0.058700
     40 H222        -1.0360    -4.8400     0.4100 h1         1 78J       0.058700
     41 H25         -1.8830    -4.0910    -2.3280 hn         1 78J       0.404000
     42 H271        -3.5580    -2.6940    -1.3650 h1         1 78J       0.063700
     43 H272        -2.9630    -3.0980     0.2550 h1         1 78J       0.063700
     44 H331        -3.0660     0.2690    -1.9840 h1         1 78J       0.018200
     45 H332        -4.1770    -0.6110    -0.9070 h1         1 78J       0.018200
     46 H36         -2.7520     1.9970    -0.2290 hc         1 78J       0.059700
     47 H381        -4.4530     2.3540    -2.0100 hc         1 78J       0.041200
     48 H382        -5.6770     1.5180    -1.0590 hc         1 78J       0.041200
     49 H501        -4.9450     0.4700     1.3090 hc         1 78J       0.041200
     50 H502        -3.2730     0.6660     1.8230 hc         1 78J       0.041200
     51 H411        -4.2830     4.1650    -0.3170 hc         1 78J       0.039450
     52 H412        -5.9590     3.9760    -0.8210 hc         1 78J       0.039450
     53 H441        -5.7620     4.2070     1.6820 hc         1 78J       0.037700
     54 H442        -6.4920     2.6700     1.2270 hc         1 78J       0.037700
     55 H471        -3.5550     3.1200     2.0480 hc         1 78J       0.039450
     56 H472        -4.7850     2.2890     2.9950 hc         1 78J       0.039450
     57 H54          2.0290     0.7900    -1.5120 hn         1 78J       0.328500
@<TRIPOS>BOND
     1     1     2 1   
     2     1    28 1   
     3     1    29 1   
     4     1    30 1   
     5     2     3 2   
     6     2    26 1   
     7     3     4 1   
     8     3    31 1   
     9     4     5 ar  
    10     4    24 ar  
    11     5     6 ar  
    12     5    32 1   
    13     6     7 ar  
    14     6    33 1   
    15     7     8 ar  
    16     8     9 1   
    17     8    24 ar  
    18     9    10 1   
    19     9    34 1   
    20    10    11 1   
    21    10    15 1   
    22    10    35 1   
    23    11    12 1   
    24    11    36 1   
    25    11    37 1   
    26    12    13 1   
    27    12    39 1   
    28    12    40 1   
    29    13    14 1   
    30    13    41 1   
    31    14    15 1   
    32    14    42 1   
    33    14    43 1   
    34    15    16 1   
    35    15    38 1   
    36    16    17 1   
    37    17    18 1   
    38    17    44 1   
    39    17    45 1   
    40    18    19 1   
    41    18    23 1   
    42    18    46 1   
    43    19    20 1   
    44    19    47 1   
    45    19    48 1   
    46    20    21 1   
    47    20    51 1   
    48    20    52 1   
    49    21    22 1   
    50    21    53 1   
    51    21    54 1   
    52    22    23 1   
    53    22    55 1   
    54    22    56 1   
    55    23    49 1   
    56    23    50 1   
    57    24    25 1   
    58    25    26 1   
    59    25    57 1   
    60    26    27 2   
@<TRIPOS>SUBSTRUCTURE
     1 78J         1 TEMP              0 ****  ****    0 ROOT
