@<TRIPOS>MOLECULE
78J
   57    60     1     0     0
SMALL
abcg2


@<TRIPOS>ATOM
      1 C01          5.2240     3.3500    -0.5330 c3         1 78J      -0.041900
      2 C05          4.3190     2.2060    -0.2210 cc         1 78J      -0.162400
      3 C06          4.5190     1.3690     0.8200 cd         1 78J      -0.108200
      4 C08          3.6360     0.2750     1.1010 ca         1 78J      -0.063800
      5 C09          3.7940    -0.5870     2.2020 ca         1 78J      -0.165000
      6 C11          2.8610    -1.5730     2.3830 ca         1 78J       0.350900
      7 N13          1.8410    -1.7960     1.5420 nb         1 78J      -0.726000
      8 C14          1.6820    -1.0220     0.4880 ca         1 78J       0.592900
      9 N15          0.6390    -1.2420    -0.3610 nu         1 78J      -0.916100
     10 C17         -0.3240    -2.3040    -0.1650 c6         1 78J       0.227500
     11 C19          0.1400    -3.6370    -0.7560 c6         1 78J      -0.140400
     12 C22         -0.9490    -4.6990    -0.6430 c6         1 78J       0.152800
     13 N25         -2.2220    -4.2910    -1.2130 n7         1 78J      -0.844400
     14 C27         -2.6770    -3.0320    -0.6570 c6         1 78J       0.122800
     15 C30         -1.6600    -1.8890    -0.7760 c6         1 78J       0.133300
     16 O32         -2.1070    -0.7320    -0.1160 os         1 78J      -0.444000
     17 C33         -2.9610     0.0920    -0.8740 c3         1 78J       0.165600
     18 C36         -3.2800     1.3550    -0.0940 c6         1 78J      -0.062700
     19 C38         -4.1280     2.2920    -0.9540 c6         1 78J      -0.069400
     20 C41         -4.4820     3.5780    -0.2150 c6         1 78J      -0.073400
     21 C44         -5.1780     3.2820     1.1100 c6         1 78J      -0.075400
     22 C47         -4.3380     2.3490     1.9740 c6         1 78J      -0.073400
     23 C50         -3.9860     1.0630     1.2310 c6         1 78J      -0.069400
     24 C53          2.5570     0.0780     0.2540 ca         1 78J      -0.006400
     25 N54          2.3540     0.9560    -0.7820 ns         1 78J      -0.364100
     26 C56          3.1540     2.0240    -1.0870 c          1 78J       0.554200
     27 O57          2.8830     2.7670    -2.0220 o          1 78J      -0.557000
     28 H011         5.6540     3.2520    -1.5310 hc         1 78J       0.051367
     29 H012         4.6840     4.2980    -0.5130 hc         1 78J       0.051367
     30 H013         6.0400     3.4070     0.1840 hc         1 78J       0.051367
     31 H06          5.3700     1.5150     1.4740 ha         1 78J       0.190000
     32 H09          4.6190    -0.4610     2.8900 ha         1 78J       0.128000
     33 H11          2.9260    -2.2420     3.2330 h4         1 78J       0.021100
     34 H15          0.7860    -0.9990    -1.3290 hn         1 78J       0.468000
     35 H17         -0.4630    -2.4270     0.9130 h1         1 78J       0.102700
     36 H191         0.4000    -3.4940    -1.8110 hc         1 78J       0.051700
     37 H192         1.0480    -3.9650    -0.2450 hc         1 78J       0.051700
     38 H30         -1.5000    -1.6780    -1.8480 h1         1 78J       0.023700
     39 H221        -0.6250    -5.6220    -1.1270 h1         1 78J       0.058700
     40 H222        -1.1120    -4.9420     0.4120 h1         1 78J       0.058700
     41 H25         -2.1270    -4.2020    -2.2180 hn         1 78J       0.404000
     42 H271        -3.6130    -2.7480    -1.1420 h1         1 78J       0.063700
     43 H272        -2.9040    -3.1820     0.4050 h1         1 78J       0.063700
     44 H331        -2.4790     0.3580    -1.8270 h1         1 78J       0.018200
     45 H332        -3.8990    -0.4240    -1.1280 h1         1 78J       0.018200
     46 H36         -2.3320     1.8640     0.1260 hc         1 78J       0.059700
     47 H381        -3.6020     2.5260    -1.8830 hc         1 78J       0.041200
     48 H382        -5.0520     1.7760    -1.2420 hc         1 78J       0.041200
     49 H501        -4.9040     0.4980     1.0280 hc         1 78J       0.041200
     50 H502        -3.3620     0.4280     1.8630 hc         1 78J       0.041200
     51 H411        -3.5680     4.1510    -0.0250 hc         1 78J       0.039450
     52 H412        -5.1160     4.2070    -0.8450 hc         1 78J       0.039450
     53 H441        -5.3890     4.2120     1.6440 hc         1 78J       0.037700
     54 H442        -6.1480     2.8120     0.9090 hc         1 78J       0.037700
     55 H471        -3.4140     2.8610     2.2670 hc         1 78J       0.039450
     56 H472        -4.8660     2.1110     2.9010 hc         1 78J       0.039450
     57 H54          1.5150     0.8820    -1.3400 hn         1 78J       0.328500
@<TRIPOS>BOND
     1     1     2 1   
     2     1    28 1   
     3     1    29 1   
     4     1    30 1   
     5     2     3 2   
     6     2    26 1   
     7     3     4 1   
     8     3    31 1   
     9     4     5 ar  
    10     4    24 ar  
    11     5     6 ar  
    12     5    32 1   
    13     6     7 ar  
    14     6    33 1   
    15     7     8 ar  
    16     8     9 1   
    17     8    24 ar  
    18     9    10 1   
    19     9    34 1   
    20    10    11 1   
    21    10    15 1   
    22    10    35 1   
    23    11    12 1   
    24    11    36 1   
    25    11    37 1   
    26    12    13 1   
    27    12    39 1   
    28    12    40 1   
    29    13    14 1   
    30    13    41 1   
    31    14    15 1   
    32    14    42 1   
    33    14    43 1   
    34    15    16 1   
    35    15    38 1   
    36    16    17 1   
    37    17    18 1   
    38    17    44 1   
    39    17    45 1   
    40    18    19 1   
    41    18    23 1   
    42    18    46 1   
    43    19    20 1   
    44    19    47 1   
    45    19    48 1   
    46    20    21 1   
    47    20    51 1   
    48    20    52 1   
    49    21    22 1   
    50    21    53 1   
    51    21    54 1   
    52    22    23 1   
    53    22    55 1   
    54    22    56 1   
    55    23    49 1   
    56    23    50 1   
    57    24    25 1   
    58    25    26 1   
    59    25    57 1   
    60    26    27 2   
@<TRIPOS>SUBSTRUCTURE
     1 78J         1 TEMP              0 ****  ****    0 ROOT
