@<TRIPOS>MOLECULE
78L
   74    79     1     0     0
SMALL
bcc


@<TRIPOS>ATOM
      1 CAW         11.7220     0.9140    -1.1910 c6         1 78L       0.126300
      2 CAX         12.8980     1.8280    -0.9050 c6         1 78L       0.130400
      3 OAY         13.5610     1.4640     0.2860 os         1 78L      -0.402600
      4 CAZ         12.6690     1.4680     1.3780 c6         1 78L       0.130400
      5 CBA         11.4860     0.5480     1.1410 c6         1 78L       0.126300
      6 NAV         10.7920     0.9340    -0.0760 n3         1 78L      -0.717600
      7 CAU          9.6180     0.1310    -0.3390 c3         1 78L       0.153800
      8 CAT          8.4760     0.4620     0.6140 c3         1 78L       0.098000
      9 NAR          7.2900    -0.2640     0.2160 ns         1 78L      -0.572900
     10 CAQ          6.2640    -0.5070     1.0490 c          1 78L       0.680700
     11 OAS          6.2540    -0.1520     2.2200 o          1 78L      -0.591100
     12 CAM          5.1090    -1.2460     0.4520 ca         1 78L      -0.164600
     13 CAL          3.8420    -1.0220     0.9730 ca         1 78L      -0.031000
     14 CAA          2.7220    -1.6520     0.4350 ca         1 78L      -0.157600
     15 CAG          1.4090    -1.3530     1.0880 c          1 78L       0.600300
     16 OAP          1.4100    -1.2380     2.3030 o          1 78L      -0.528100
     17 CAN          5.2610    -2.1750    -0.5740 ca         1 78L      -0.088000
     18 CAO          4.1550    -2.8350    -1.0810 ca         1 78L      -0.148000
     19 CAB          2.8740    -2.5720    -0.6040 ca         1 78L      -0.024300
     20 CAC          1.6850    -3.2280    -1.2270 c3         1 78L      -0.036100
     21 CAD          0.8160    -2.1920    -1.9290 c3         1 78L      -0.035100
     22 CAE         -0.0880    -1.3890    -1.0300 ca         1 78L       0.021700
     23 CAH         -1.2800    -0.9680    -1.5990 ca         1 78L      -0.231000
     24 CAF          0.1750    -1.0720     0.3190 ca         1 78L      -0.211600
     25 CAK         -0.8190    -0.3760     1.0270 ca         1 78L      -0.032000
     26 CAJ         -1.9940     0.0450     0.4560 ca         1 78L      -0.206000
     27 CAI         -2.2400    -0.2350    -0.8950 ca         1 78L       0.231600
     28 NBB         -3.3840     0.1520    -1.5340 nu         1 78L      -0.661000
     29 CBC         -4.3940     0.9440    -0.9790 ca         1 78L       0.102600
     30 CBD         -5.6950     0.4700    -0.8670 ca         1 78L      -0.099000
     31 CBH         -4.1430     2.2560    -0.5870 ca         1 78L       0.144900
     32 FBI         -2.9060     2.7420    -0.7190 f          1 78L      -0.120900
     33 CBG         -5.1260     3.0710    -0.0700 ca         1 78L      -0.192000
     34 CBF         -6.4020     2.5560     0.0360 ca         1 78L       0.127900
     35 FBJ         -7.3710     3.3300     0.5340 f          1 78L      -0.133900
     36 CBE         -6.7180     1.2660    -0.3680 ca         1 78L       0.017600
     37 NBK         -8.0380     0.8020    -0.2650 ns         1 78L      -0.484100
     38 CBL         -8.3730    -0.3210     0.4310 c          1 78L       0.717700
     39 OBN         -7.5550    -1.0070     1.0150 o          1 78L      -0.564100
     40 CBM         -9.8040    -0.6680     0.4350 cc         1 78L      -0.159700
     41 SBR        -10.9600    -0.0400    -0.6800 ss         1 78L      -0.070800
     42 CBQ        -12.2220    -0.9360     0.0390 cc         1 78L      -0.093100
     43 CBP        -11.7790    -1.6930     1.0830 cd         1 78L      -0.162000
     44 CBO        -10.3900    -1.5440     1.3070 cd         1 78L      -0.071000
     45 H1          11.2150     1.2680    -2.0920 h1         1 78L       0.042200
     46 H2          12.0890    -0.1050    -1.4020 h1         1 78L       0.042200
     47 H3          13.6240     1.7680    -1.7160 h1         1 78L       0.051950
     48 H4          12.5410     2.8660    -0.8450 h1         1 78L       0.051950
     49 H5          13.2260     1.1390     2.2560 h1         1 78L       0.051950
     50 H6          12.3020     2.4850     1.5720 h1         1 78L       0.051950
     51 H7          11.8320    -0.4990     1.0930 h1         1 78L       0.042200
     52 H8          10.8170     0.6250     2.0010 h1         1 78L       0.042200
     53 H10          9.2890     0.3490    -1.3600 h1         1 78L       0.033700
     54 H11          9.8310    -0.9500    -0.2990 h1         1 78L       0.033700
     55 H12          8.7210     0.1830     1.6380 h1         1 78L       0.061700
     56 H13          8.3000     1.5420     0.6020 h1         1 78L       0.061700
     57 H14          7.1470    -0.4020    -0.7720 hn         1 78L       0.310500
     58 H15          3.7210    -0.3240     1.7900 ha         1 78L       0.168000
     59 H16          6.2400    -2.4100    -0.9710 ha         1 78L       0.132000
     60 H17          4.2840    -3.5670    -1.8680 ha         1 78L       0.133000
     61 H18          2.0210    -3.9630    -1.9590 hc         1 78L       0.058700
     62 H19          1.0960    -3.7750    -0.4860 hc         1 78L       0.058700
     63 H20          1.4560    -1.5120    -2.5000 hc         1 78L       0.055200
     64 H21          0.1890    -2.6970    -2.6650 hc         1 78L       0.055200
     65 H22         -1.4820    -1.2270    -2.6320 ha         1 78L       0.126000
     66 H23         -0.6490    -0.1430     2.0700 ha         1 78L       0.153000
     67 H24         -2.7210     0.5670     1.0630 ha         1 78L       0.145000
     68 H25         -3.5770    -0.2650    -2.4310 hn         1 78L       0.445800
     69 H26         -5.9110    -0.5380    -1.1960 ha         1 78L       0.160000
     70 H27         -4.9060     4.0850     0.2360 ha         1 78L       0.174000
     71 H28         -8.7680     1.4410    -0.5420 hn         1 78L       0.332500
     72 H29        -13.2250    -0.8670    -0.3550 h4         1 78L       0.173000
     73 H30        -12.4210    -2.3360     1.6660 ha         1 78L       0.161000
     74 H31         -9.8430    -2.0530     2.0870 ha         1 78L       0.173000
@<TRIPOS>BOND
     1     1     2 1   
     2     1     6 1   
     3     1    45 1   
     4     1    46 1   
     5     2     3 1   
     6     2    47 1   
     7     2    48 1   
     8     3     4 1   
     9     4     5 1   
    10     4    49 1   
    11     4    50 1   
    12     5     6 1   
    13     5    51 1   
    14     5    52 1   
    15     6     7 1   
    16     7     8 1   
    17     7    53 1   
    18     7    54 1   
    19     8     9 1   
    20     8    55 1   
    21     8    56 1   
    22     9    10 1   
    23     9    57 1   
    24    10    11 2   
    25    10    12 1   
    26    12    13 ar  
    27    12    17 ar  
    28    13    14 ar  
    29    13    58 1   
    30    14    15 1   
    31    14    19 ar  
    32    15    16 2   
    33    15    24 1   
    34    17    18 ar  
    35    17    59 1   
    36    18    19 ar  
    37    18    60 1   
    38    19    20 1   
    39    20    21 1   
    40    20    61 1   
    41    20    62 1   
    42    21    22 1   
    43    21    63 1   
    44    21    64 1   
    45    22    23 ar  
    46    22    24 ar  
    47    23    27 ar  
    48    23    65 1   
    49    24    25 ar  
    50    25    26 ar  
    51    25    66 1   
    52    26    27 ar  
    53    26    67 1   
    54    27    28 1   
    55    28    29 1   
    56    28    68 1   
    57    29    30 ar  
    58    29    31 ar  
    59    30    36 ar  
    60    30    69 1   
    61    31    32 1   
    62    31    33 ar  
    63    33    34 ar  
    64    33    70 1   
    65    34    35 1   
    66    34    36 ar  
    67    36    37 1   
    68    37    38 1   
    69    37    71 1   
    70    38    39 2   
    71    38    40 1   
    72    40    41 1   
    73    40    44 2   
    74    41    42 1   
    75    42    43 2   
    76    42    72 1   
    77    43    44 1   
    78    43    73 1   
    79    44    74 1   
@<TRIPOS>SUBSTRUCTURE
     1 78L         1 TEMP              0 ****  ****    0 ROOT
