@<TRIPOS>MOLECULE
78L
   74    79     1     0     0
SMALL
No Charge or Current Charge


@<TRIPOS>ATOM
      1 CAW         12.1810     0.7670    -1.5280 c6         1 78L       0.126300
      2 CAX         13.4540     1.6560    -1.3990 c6         1 78L       0.153600
      3 OAY         14.0180     1.5350    -0.0720 os         1 78L      -0.449000
      4 CAZ         13.0830     1.9110     0.9670 c6         1 78L       0.153600
      5 CBA         11.7990     1.0300     0.8890 c6         1 78L       0.126300
      6 NAV         11.1690     1.0820    -0.4720 n3         1 78L      -0.717600
      7 CAU          9.9420     0.2540    -0.6010 c3         1 78L       0.153800
      8 CAT          8.7690     0.6690     0.3210 c3         1 78L       0.098000
      9 NAR          7.5530    -0.1170     0.0740 ns         1 78L      -0.505900
     10 CAQ          6.3890     0.0070     0.7990 c          1 78L       0.613700
     11 OAS          6.3030     0.8070     1.7210 o          1 78L      -0.591100
     12 CAM          5.2370    -0.8890     0.3980 ca         1 78L      -0.164600
     13 CAL          4.0190    -0.8080     1.1090 ca         1 78L      -0.013000
     14 CAA          2.9120    -1.6130     0.7660 ca         1 78L      -0.157600
     15 CAG          1.6590    -1.5000     1.5910 c          1 78L       0.600300
     16 OAP          1.7590    -1.5370     2.8120 o          1 78L      -0.528100
     17 CAN          5.3330    -1.8150    -0.6670 ca         1 78L      -0.070000
     18 CAO          4.2400    -2.6320    -0.9960 ca         1 78L      -0.130000
     19 CAB          3.0330    -2.5410    -0.2800 ca         1 78L      -0.024300
     20 CAC          1.8690    -3.4340    -0.6390 c3         1 78L      -0.036100
     21 CAD          0.7490    -2.6140    -1.2850 c3         1 78L      -0.035100
     22 CAE         -0.1040    -1.7670    -0.3380 ca         1 78L       0.021700
     23 CAH         -1.4000    -1.4630    -0.8060 ca         1 78L      -0.213000
     24 CAF          0.2920    -1.3040     0.9530 ca         1 78L      -0.211600
     25 CAK         -0.6530    -0.5850     1.7260 ca         1 78L      -0.014000
     26 CAJ         -1.9350    -0.3050     1.2380 ca         1 78L      -0.188000
     27 CAI         -2.3060    -0.7260    -0.0400 ca         1 78L       0.370000
     28 NBB         -3.5800    -0.4780    -0.5490 nu         1 78L      -0.993000
     29 CBC         -4.5720     0.4810    -0.2470 ca         1 78L       0.241000
     30 CBD         -5.9210     0.0910    -0.3600 ca         1 78L      -0.081000
     31 CBH         -4.2770     1.8200     0.1320 ca         1 78L       0.180000
     32 FBI         -3.0000     2.2690     0.1910 f          1 78L      -0.156000
     33 CBG         -5.3110     2.7240     0.4140 ca         1 78L      -0.174000
     34 CBF         -6.6460     2.3120     0.3150 ca         1 78L       0.163000
     35 FBJ         -7.6280     3.1990     0.5910 f          1 78L      -0.169000
     36 CBE         -6.9720     0.9980    -0.0780 ca         1 78L      -0.075000
     37 NBK         -8.3530     0.6510    -0.1650 ns         1 78L      -0.158000
     38 CBL         -9.0110    -0.5080    -0.5580 c          1 78L       0.650700
     39 OBN         -8.4470    -1.5240    -0.9420 o          1 78L      -0.564100
     40 CBM        -10.4830    -0.3990    -0.4710 cc         1 78L      -0.304600
     41 SBR        -11.3460     1.0380     0.0730 ss         1 78L       0.219000
     42 CBQ        -12.8930     0.2300    -0.1670 cc         1 78L      -0.220000
     43 CBP        -12.7170    -1.0490    -0.6320 cd         1 78L      -0.144000
     44 CBO        -11.3540    -1.4100    -0.8060 cd         1 78L      -0.053000
     45 H1          11.7490     0.9160    -2.5280 h1         1 78L       0.042200
     46 H2          12.4840    -0.2890    -1.4630 h1         1 78L       0.042200
     47 H3          14.2040     1.3470    -2.1400 h1         1 78L       0.051950
     48 H4          13.1970     2.7080    -1.5900 h1         1 78L       0.051950
     49 H5          13.5630     1.7860     1.9480 h1         1 78L       0.051950
     50 H6          12.8170     2.9720     0.8490 h1         1 78L       0.051950
     51 H7          12.0680    -0.0050     1.1450 h1         1 78L       0.042200
     52 H8          11.0970     1.3820     1.6580 h1         1 78L       0.042200
     53 H10          9.5810     0.3110    -1.6370 h1         1 78L       0.033700
     54 H11         10.1830    -0.8000    -0.4050 h1         1 78L       0.033700
     55 H12          9.0600     0.5380     1.3710 h1         1 78L       0.061700
     56 H13          8.5410     1.7300     0.1570 h1         1 78L       0.061700
     57 H14          7.5580    -0.7960    -0.6760 hn         1 78L       0.310500
     58 H15          3.9240    -0.1060     1.9370 ha         1 78L       0.150000
     59 H16          6.2460    -1.9190    -1.2470 ha         1 78L       0.114000
     60 H17          4.3370    -3.3420    -1.8140 ha         1 78L       0.115000
     61 H18          2.1900    -4.2090    -1.3460 hc         1 78L       0.058700
     62 H19          1.4880    -3.9670     0.2410 hc         1 78L       0.058700
     63 H20          1.1790    -1.9730    -2.0640 hc         1 78L       0.055200
     64 H21          0.0980    -3.3230    -1.8110 hc         1 78L       0.055200
     65 H22         -1.7070    -1.8060    -1.7910 ha         1 78L       0.108000
     66 H23         -0.3910    -0.2240     2.7200 ha         1 78L       0.135000
     67 H24         -2.6390     0.2360     1.8620 ha         1 78L       0.127000
     68 H25         -3.8600    -1.1580    -1.2580 hn         1 78L       0.501000
     69 H26         -6.1320    -0.9300    -0.6550 ha         1 78L       0.142000
     70 H27         -5.0770     3.7450     0.7010 ha         1 78L       0.156000
     71 H28         -8.9750     1.3980     0.1150 hn         1 78L       0.166000
     72 H29        -13.8110     0.7600     0.0530 h4         1 78L       0.155000
     73 H30        -13.5410    -1.7230    -0.8470 ha         1 78L       0.143000
     74 H31        -11.0370    -2.3860    -1.1670 ha         1 78L       0.155000
@<TRIPOS>BOND
     1     1     2 1   
     2     1     6 1   
     3     1    45 1   
     4     1    46 1   
     5     2     3 1   
     6     2    47 1   
     7     2    48 1   
     8     3     4 1   
     9     4     5 1   
    10     4    49 1   
    11     4    50 1   
    12     5     6 1   
    13     5    51 1   
    14     5    52 1   
    15     6     7 1   
    16     7     8 1   
    17     7    53 1   
    18     7    54 1   
    19     8     9 1   
    20     8    55 1   
    21     8    56 1   
    22     9    10 1   
    23     9    57 1   
    24    10    11 2   
    25    10    12 1   
    26    12    13 ar  
    27    12    17 ar  
    28    13    14 ar  
    29    13    58 1   
    30    14    15 1   
    31    14    19 ar  
    32    15    16 2   
    33    15    24 1   
    34    17    18 ar  
    35    17    59 1   
    36    18    19 ar  
    37    18    60 1   
    38    19    20 1   
    39    20    21 1   
    40    20    61 1   
    41    20    62 1   
    42    21    22 1   
    43    21    63 1   
    44    21    64 1   
    45    22    23 ar  
    46    22    24 ar  
    47    23    27 ar  
    48    23    65 1   
    49    24    25 ar  
    50    25    26 ar  
    51    25    66 1   
    52    26    27 ar  
    53    26    67 1   
    54    27    28 1   
    55    28    29 1   
    56    28    68 1   
    57    29    30 ar  
    58    29    31 ar  
    59    30    36 ar  
    60    30    69 1   
    61    31    32 1   
    62    31    33 ar  
    63    33    34 ar  
    64    33    70 1   
    65    34    35 1   
    66    34    36 ar  
    67    36    37 1   
    68    37    38 1   
    69    37    71 1   
    70    38    39 2   
    71    38    40 1   
    72    40    41 1   
    73    40    44 2   
    74    41    42 1   
    75    42    43 2   
    76    42    72 1   
    77    43    44 1   
    78    43    73 1   
    79    44    74 1   
@<TRIPOS>SUBSTRUCTURE
     1 78L         1 TEMP              0 ****  ****    0 ROOT
