@<TRIPOS>MOLECULE
78M
   56    55     1     0     0
SMALL
bcc


@<TRIPOS>ATOM
      1 O21          9.9120     1.7170    -0.3140 oh         1 78M      -0.579800
      2 C20          9.0900     0.7220     0.2430 c3         1 78M       0.105400
      3 C18          7.6530     0.9760    -0.1840 c3         1 78M       0.141100
      4 O19          7.1880     2.2470     0.2020 oh         1 78M      -0.563800
      5 C17          6.7700    -0.1400     0.3470 c3         1 78M       0.105400
      6 O2           5.4590     0.0500    -0.1850 os         1 78M      -0.410900
      7 C1           4.5110    -0.8030     0.1890 c          1 78M       0.641100
      8 O1           4.7040    -1.7040     0.9670 o          1 78M      -0.540000
      9 C2           3.2010    -0.5080    -0.4910 c3         1 78M      -0.136400
     10 C3           2.0380    -1.3140     0.0660 c3         1 78M      -0.069400
     11 C4           0.7400    -1.0600    -0.6900 c3         1 78M      -0.076400
     12 C5          -0.4170    -1.8790    -0.1330 c3         1 78M      -0.073400
     13 C6          -1.7230    -1.6970    -0.9080 c3         1 78M      -0.041200
     14 C7          -2.7900    -2.6130    -0.3950 c2         1 78M      -0.169200
     15 C8          -3.9440    -2.2900     0.1860 c2         1 78M      -0.163200
     16 C9          -4.5080    -0.9260     0.4360 c3         1 78M      -0.042200
     17 C10         -5.9600    -0.8160    -0.0280 c3         1 78M      -0.073400
     18 C11         -6.5940     0.5320     0.2890 c3         1 78M      -0.074400
     19 C12         -8.0680     0.5980    -0.0910 c3         1 78M      -0.074400
     20 C13         -8.7230     1.9300     0.2490 c3         1 78M      -0.075400
     21 C15        -10.8560     3.3070     0.2580 c3         1 78M      -0.088100
     22 C14        -10.2070     1.9760    -0.0960 c3         1 78M      -0.074400
     23 H21         10.8160     1.5420    -0.0410 ho         1 78M       0.406000
     24 H201         9.3830    -0.2810    -0.0910 h1         1 78M       0.021200
     25 H202         9.1460     0.7170     1.3420 h1         1 78M       0.021200
     26 H18          7.6120     0.9630    -1.2780 h1         1 78M       0.097700
     27 H19          7.2660     2.3270     1.1600 ho         1 78M       0.397000
     28 H171         7.1620    -1.1130     0.0390 h1         1 78M       0.050700
     29 H172         6.7430    -0.1200     1.4410 h1         1 78M       0.050700
     30 H21C         3.0020     0.5650    -0.4240 hc         1 78M       0.073700
     31 H22C         3.3300    -0.7170    -1.5590 hc         1 78M       0.073700
     32 H31C         2.2740    -2.3800     0.0200 hc         1 78M       0.054200
     33 H32C         1.8960    -1.0730     1.1240 hc         1 78M       0.054200
     34 H41C         0.4900     0.0060    -0.6520 hc         1 78M       0.038200
     35 H42C         0.8810    -1.3040    -1.7490 hc         1 78M       0.038200
     36 H51C        -0.1410    -2.9400    -0.1410 hc         1 78M       0.042200
     37 H52C        -0.5810    -1.6170     0.9160 hc         1 78M       0.042200
     38 H61C        -2.0360    -0.6520    -0.8620 hc         1 78M       0.044200
     39 H62C        -1.5370    -1.9200    -1.9640 hc         1 78M       0.044200
     40 H7          -2.5600    -3.6720    -0.4880 ha         1 78M       0.115000
     41 H8          -4.5740    -3.1100     0.5250 ha         1 78M       0.114000
     42 H91C        -4.4700    -0.7140     1.5110 hc         1 78M       0.045200
     43 H92C        -3.9060    -0.1520    -0.0470 hc         1 78M       0.045200
     44 H101        -6.0140    -1.0040    -1.1050 hc         1 78M       0.039200
     45 H102        -6.5450    -1.6100     0.4480 hc         1 78M       0.039200
     46 H111        -6.4880     0.7390     1.3600 hc         1 78M       0.037200
     47 H112        -6.0470     1.3270    -0.2280 hc         1 78M       0.037200
     48 H121        -8.1770     0.4020    -1.1630 hc         1 78M       0.037200
     49 H122        -8.6050    -0.2090     0.4200 hc         1 78M       0.037200
     50 H131        -8.5960     2.1350     1.3180 hc         1 78M       0.037200
     51 H132        -8.2030     2.7390    -0.2770 hc         1 78M       0.037200
     52 H151       -10.7720     3.5150     1.3270 hc         1 78M       0.031367
     53 H152       -10.3790     4.1330    -0.2740 hc         1 78M       0.031367
     54 H153       -11.9160     3.3180     0.0030 hc         1 78M       0.031367
     55 H141       -10.3360     1.7760    -1.1640 hc         1 78M       0.036700
     56 H142       -10.7230     1.1660     0.4280 hc         1 78M       0.036700
@<TRIPOS>BOND
     1     1     2 1   
     2     1    23 1   
     3     2     3 1   
     4     2    24 1   
     5     2    25 1   
     6     3     4 1   
     7     3     5 1   
     8     3    26 1   
     9     4    27 1   
    10     5     6 1   
    11     5    28 1   
    12     5    29 1   
    13     6     7 1   
    14     7     8 2   
    15     7     9 1   
    16     9    10 1   
    17     9    30 1   
    18     9    31 1   
    19    10    11 1   
    20    10    32 1   
    21    10    33 1   
    22    11    12 1   
    23    11    34 1   
    24    11    35 1   
    25    12    13 1   
    26    12    36 1   
    27    12    37 1   
    28    13    14 1   
    29    13    38 1   
    30    13    39 1   
    31    14    15 2   
    32    14    40 1   
    33    15    16 1   
    34    15    41 1   
    35    16    17 1   
    36    16    42 1   
    37    16    43 1   
    38    17    18 1   
    39    17    44 1   
    40    17    45 1   
    41    18    19 1   
    42    18    46 1   
    43    18    47 1   
    44    19    20 1   
    45    19    48 1   
    46    19    49 1   
    47    20    22 1   
    48    20    50 1   
    49    20    51 1   
    50    21    22 1   
    51    21    52 1   
    52    21    53 1   
    53    21    54 1   
    54    22    55 1   
    55    22    56 1   
@<TRIPOS>SUBSTRUCTURE
     1 78M         1 TEMP              0 ****  ****    0 ROOT
