@<TRIPOS>MOLECULE
78M
   56    55     1     0     0
SMALL
No Charge or Current Charge


@<TRIPOS>ATOM
      1 O21          6.8430     3.5480     1.3760 oh         1 78M      -0.642000
      2 C20          6.9100     2.2380     0.7860 c3         1 78M       0.128600
      3 C18          5.4980     1.7780     0.3390 c3         1 78M       0.164300
      4 O19          4.6100     1.8590     1.4710 oh         1 78M      -0.626000
      5 C17          5.5130     0.3410    -0.2460 c3         1 78M       0.128600
      6 O2           4.2080     0.0390    -0.7830 os         1 78M      -0.434100
      7 C1           4.0080    -1.2000    -1.3320 c          1 78M       0.592100
      8 O1           4.8580    -2.0790    -1.3890 o          1 78M      -0.491000
      9 C2           2.5730    -1.3750    -1.8350 c3         1 78M      -0.136400
     10 C3           1.6770    -2.0360    -0.7610 c3         1 78M      -0.069400
     11 C4           0.2160    -2.2250    -1.2260 c3         1 78M      -0.076400
     12 C5          -0.6790    -2.8840    -0.1530 c3         1 78M      -0.073400
     13 C6          -2.1390    -3.0720    -0.6140 c3         1 78M      -0.041200
     14 C7          -2.9980    -3.7110     0.4600 c2         1 78M      -0.219200
     15 C8          -3.7970    -3.0770     1.3360 c2         1 78M      -0.213200
     16 C9          -3.9880    -1.5780     1.4730 c3         1 78M      -0.042200
     17 C10         -5.2330    -1.0790     0.7120 c3         1 78M      -0.073400
     18 C11         -5.4440     0.4470     0.8250 c3         1 78M      -0.074400
     19 C12         -6.6900     0.9440     0.0600 c3         1 78M      -0.074400
     20 C13         -6.8990     2.4700     0.1730 c3         1 78M      -0.075400
     21 C15         -8.3550     4.4890    -0.4810 c3         1 78M      -0.088100
     22 C14         -8.1450     2.9670    -0.5930 c3         1 78M      -0.074400
     23 H21          7.7640     3.8150     1.5950 ho         1 78M       0.445000
     24 H201         7.5760     2.2500    -0.0880 h1         1 78M       0.021200
     25 H202         7.3190     1.5160     1.5060 h1         1 78M       0.021200
     26 H18          5.1640     2.4600    -0.4560 h1         1 78M       0.097700
     27 H19          4.9080     2.6570     1.9640 ho         1 78M       0.436000
     28 H171         6.2740     0.2820    -1.0350 h1         1 78M       0.050700
     29 H172         5.7860    -0.3710     0.5450 h1         1 78M       0.050700
     30 H21C         2.1490    -0.3880    -2.0580 hc         1 78M       0.073700
     31 H22C         2.5810    -2.0040    -2.7330 hc         1 78M       0.073700
     32 H31C         2.0990    -3.0130    -0.4910 hc         1 78M       0.054200
     33 H32C         1.6900    -1.4210     0.1480 hc         1 78M       0.054200
     34 H41C        -0.2050    -1.2480    -1.4950 hc         1 78M       0.038200
     35 H42C         0.2030    -2.8400    -2.1340 hc         1 78M       0.038200
     36 H51C        -0.2600    -3.8620     0.1170 hc         1 78M       0.042200
     37 H52C        -0.6670    -2.2690     0.7550 hc         1 78M       0.042200
     38 H61C        -2.5480    -2.0980    -0.9090 hc         1 78M       0.044200
     39 H62C        -2.1570    -3.6930    -1.5190 hc         1 78M       0.044200
     40 H7          -2.9440    -4.8020     0.4740 ha         1 78M       0.165000
     41 H8          -4.3760    -3.6600     2.0560 ha         1 78M       0.164000
     42 H91C        -4.0800    -1.3130     2.5330 hc         1 78M       0.045200
     43 H92C        -3.1060    -1.0400     1.1050 hc         1 78M       0.045200
     44 H101        -5.1380    -1.3520    -0.3470 hc         1 78M       0.039200
     45 H102        -6.1200    -1.5970     1.0970 hc         1 78M       0.039200
     46 H111        -5.5390     0.7190     1.8840 hc         1 78M       0.037200
     47 H112        -4.5550     0.9620     0.4400 hc         1 78M       0.037200
     48 H121        -6.5950     0.6700    -0.9990 hc         1 78M       0.037200
     49 H122        -7.5780     0.4280     0.4450 hc         1 78M       0.037200
     50 H131        -6.9950     2.7430     1.2310 hc         1 78M       0.037200
     51 H132        -6.0110     2.9850    -0.2130 hc         1 78M       0.037200
     52 H151        -8.4860     4.7870     0.5660 hc         1 78M       0.031367
     53 H152        -7.4930     5.0310    -0.8900 hc         1 78M       0.031367
     54 H153        -9.2480     4.7940    -1.0390 hc         1 78M       0.031367
     55 H141        -8.0520     2.6970    -1.6530 hc         1 78M       0.036700
     56 H142        -9.0360     2.4550    -0.2090 hc         1 78M       0.036700
@<TRIPOS>BOND
     1     1     2 1   
     2     1    23 1   
     3     2     3 1   
     4     2    24 1   
     5     2    25 1   
     6     3     4 1   
     7     3     5 1   
     8     3    26 1   
     9     4    27 1   
    10     5     6 1   
    11     5    28 1   
    12     5    29 1   
    13     6     7 1   
    14     7     8 2   
    15     7     9 1   
    16     9    10 1   
    17     9    30 1   
    18     9    31 1   
    19    10    11 1   
    20    10    32 1   
    21    10    33 1   
    22    11    12 1   
    23    11    34 1   
    24    11    35 1   
    25    12    13 1   
    26    12    36 1   
    27    12    37 1   
    28    13    14 1   
    29    13    38 1   
    30    13    39 1   
    31    14    15 2   
    32    14    40 1   
    33    15    16 1   
    34    15    41 1   
    35    16    17 1   
    36    16    42 1   
    37    16    43 1   
    38    17    18 1   
    39    17    44 1   
    40    17    45 1   
    41    18    19 1   
    42    18    46 1   
    43    18    47 1   
    44    19    20 1   
    45    19    48 1   
    46    19    49 1   
    47    20    22 1   
    48    20    50 1   
    49    20    51 1   
    50    21    22 1   
    51    21    52 1   
    52    21    53 1   
    53    21    54 1   
    54    22    55 1   
    55    22    56 1   
@<TRIPOS>SUBSTRUCTURE
     1 78M         1 TEMP              0 ****  ****    0 ROOT
