@<TRIPOS>MOLECULE
78N
   56    55     1     0     0
SMALL
No Charge or Current Charge


@<TRIPOS>ATOM
      1 O22          9.4180    -0.3310    -0.4010 oh         1 78N      -0.642000
      2 C19          8.4410     0.3430     0.4110 c3         1 78N       0.128600
      3 C18          7.0300     0.2000    -0.2190 c3         1 78N       0.164300
      4 O20          6.7550    -1.2020    -0.4140 oh         1 78N      -0.626000
      5 C17          5.9340     0.8580     0.6590 c3         1 78N       0.128600
      6 O16          4.6800     0.8280    -0.0550 os         1 78N      -0.434100
      7 C8           3.5730     1.3470     0.5630 c          1 78N       0.592100
      8 O15          3.5680     1.8260     1.6900 o          1 78N      -0.491000
      9 C7           2.3220     1.2200    -0.3090 c3         1 78N      -0.138400
     10 C6           1.5340    -0.0700     0.0220 c3         1 78N      -0.067400
     11 C5           0.2660    -0.2410    -0.8430 c3         1 78N      -0.077400
     12 C4          -0.5220    -1.5280    -0.5120 c3         1 78N      -0.072400
     13 C3          -1.7900    -1.7010    -1.3720 c3         1 78N      -0.043200
     14 C2          -2.5510    -2.9650    -1.0200 c2         1 78N      -0.216200
     15 C1          -3.6060    -3.0670    -0.1930 c2         1 78N      -0.215200
     16 C9          -4.2470    -1.9460     0.6040 c3         1 78N      -0.043200
     17 C10         -5.4770    -1.3530    -0.1140 c3         1 78N      -0.072400
     18 C11         -6.1420    -0.2020     0.6720 c3         1 78N      -0.074400
     19 C12         -7.3700     0.3930    -0.0510 c3         1 78N      -0.074400
     20 C13         -8.0350     1.5450     0.7350 c3         1 78N      -0.075400
     21 C15         -9.9260     3.2890     0.7960 c3         1 78N      -0.088100
     22 C14         -9.2630     2.1400     0.0120 c3         1 78N      -0.074400
     23 H22         10.2970    -0.1700     0.0090 ho         1 78N       0.445000
     24 H191         8.4330    -0.0790     1.4250 h1         1 78N       0.021200
     25 H192         8.6890     1.4090     0.4940 h1         1 78N       0.021200
     26 H18          7.0440     0.7230    -1.1850 h1         1 78N       0.098700
     27 H20          7.6220    -1.5920    -0.6660 ho         1 78N       0.436000
     28 H171         5.8560     0.3160     1.6120 h1         1 78N       0.050700
     29 H172         6.2230     1.8940     0.8790 h1         1 78N       0.050700
     30 H71          1.6760     2.0890    -0.1390 hc         1 78N       0.073200
     31 H72          2.6240     1.1620    -1.3610 hc         1 78N       0.073200
     32 H61C         2.1890    -0.9390    -0.1210 hc         1 78N       0.054200
     33 H62C         1.2490    -0.0560     1.0820 hc         1 78N       0.054200
     34 H51C        -0.3880     0.6280    -0.7000 hc         1 78N       0.037700
     35 H52C         0.5510    -0.2570    -1.9030 hc         1 78N       0.037700
     36 H41C         0.1300    -2.3990    -0.6550 hc         1 78N       0.042200
     37 H42C        -0.8080    -1.5130     0.5470 hc         1 78N       0.042200
     38 H31C        -2.4280    -0.8170    -1.2490 hc         1 78N       0.044700
     39 H32C        -1.5090    -1.7230    -2.4330 hc         1 78N       0.044700
     40 H2          -2.1780    -3.8570    -1.5280 ha         1 78N       0.165000
     41 H1          -4.0730    -4.0410    -0.0330 ha         1 78N       0.166000
     42 H91C        -4.5490    -2.3210     1.5900 hc         1 78N       0.043200
     43 H92C        -3.5240    -1.1440     0.7960 hc         1 78N       0.043200
     44 H101        -5.1710    -0.9850    -1.1010 hc         1 78N       0.039700
     45 H102        -6.2130    -2.1490    -0.2830 hc         1 78N       0.039700
     46 H111        -6.4480    -0.5690     1.6600 hc         1 78N       0.037200
     47 H112        -5.4040     0.5930     0.8400 hc         1 78N       0.037200
     48 H121        -7.0640     0.7600    -1.0380 hc         1 78N       0.037200
     49 H122        -8.1090    -0.4010    -0.2190 hc         1 78N       0.037200
     50 H131        -8.3410     1.1780     1.7230 hc         1 78N       0.036700
     51 H132        -7.2970     2.3390     0.9030 hc         1 78N       0.036700
     52 H141        -8.9600     2.5100    -0.9750 hc         1 78N       0.036700
     53 H142       -10.0050     1.3490    -0.1560 hc         1 78N       0.036700
     54 H151       -10.7910     3.6780     0.2450 hc         1 78N       0.031367
     55 H152       -10.2730     2.9410     1.7760 hc         1 78N       0.031367
     56 H153        -9.2190     4.1130     0.9500 hc         1 78N       0.031367
@<TRIPOS>BOND
     1     1     2 1   
     2     1    23 1   
     3     2     3 1   
     4     2    24 1   
     5     2    25 1   
     6     3     4 1   
     7     3     5 1   
     8     3    26 1   
     9     4    27 1   
    10     5     6 1   
    11     5    28 1   
    12     5    29 1   
    13     6     7 1   
    14     7     8 2   
    15     7     9 1   
    16     9    10 1   
    17     9    30 1   
    18     9    31 1   
    19    10    11 1   
    20    10    32 1   
    21    10    33 1   
    22    11    12 1   
    23    11    34 1   
    24    11    35 1   
    25    12    13 1   
    26    12    36 1   
    27    12    37 1   
    28    13    14 1   
    29    13    38 1   
    30    13    39 1   
    31    14    15 2   
    32    14    40 1   
    33    15    16 1   
    34    15    41 1   
    35    16    17 1   
    36    16    42 1   
    37    16    43 1   
    38    17    18 1   
    39    17    44 1   
    40    17    45 1   
    41    18    19 1   
    42    18    46 1   
    43    18    47 1   
    44    19    20 1   
    45    19    48 1   
    46    19    49 1   
    47    20    22 1   
    48    20    50 1   
    49    20    51 1   
    50    21    22 1   
    51    21    54 1   
    52    21    55 1   
    53    21    56 1   
    54    22    52 1   
    55    22    53 1   
@<TRIPOS>SUBSTRUCTURE
     1 78N         1 TEMP              0 ****  ****    0 ROOT
