@<TRIPOS>MOLECULE
78N
   56    55     1     0     0
SMALL
abcg2


@<TRIPOS>ATOM
      1 O22          9.2740     2.5740     0.1280 oh         1 78N      -0.642000
      2 C19          8.6480     1.3340     0.3450 c3         1 78N       0.128600
      3 C18          7.1810     1.4500    -0.0360 c3         1 78N       0.164300
      4 O20          6.9990     1.8030    -1.3860 oh         1 78N      -0.626000
      5 C17          6.4700     0.1550     0.3190 c3         1 78N       0.128600
      6 O16          5.0850     0.3240     0.0220 os         1 78N      -0.434100
      7 C8           4.2760    -0.7100     0.2290 c          1 78N       0.592100
      8 O15          4.6530    -1.7670     0.6690 o          1 78N      -0.491000
      9 C7           2.8590    -0.3840    -0.1580 c3         1 78N      -0.138400
     10 C6           1.8760    -1.5150     0.1000 c3         1 78N      -0.067400
     11 C5           0.4660    -1.1480    -0.3450 c3         1 78N      -0.077400
     12 C4          -0.5490    -2.2500    -0.0700 c3         1 78N      -0.072400
     13 C3          -1.9480    -1.8980    -0.5730 c3         1 78N      -0.043200
     14 C2          -2.9450    -2.9820    -0.3060 c2         1 78N      -0.216200
     15 C1          -4.1050    -2.8730     0.3410 c2         1 78N      -0.215200
     16 C9          -4.7030    -1.6290     0.9230 c3         1 78N      -0.043200
     17 C10         -5.8700    -1.1070     0.0800 c3         1 78N      -0.072400
     18 C11         -6.4930     0.1640     0.6430 c3         1 78N      -0.074400
     19 C12         -7.6470     0.6860    -0.2050 c3         1 78N      -0.074400
     20 C13         -8.2290     1.9980     0.3060 c3         1 78N      -0.075400
     21 C15         -9.9450     3.8380    -0.0420 c3         1 78N      -0.088100
     22 C14         -9.3870     2.5120    -0.5410 c3         1 78N      -0.074400
     23 H22         10.2080     2.4750     0.3310 ho         1 78N       0.445000
     24 H191         9.1110     0.5330    -0.2510 h1         1 78N       0.021200
     25 H192         8.7170     1.0220     1.3960 h1         1 78N       0.021200
     26 H18          6.7360     2.2630     0.5480 h1         1 78N       0.098700
     27 H20          7.4350     1.1450    -1.9390 ho         1 78N       0.436000
     28 H171         6.8820    -0.6800    -0.2570 h1         1 78N       0.050700
     29 H172         6.6060    -0.0710     1.3790 h1         1 78N       0.050700
     30 H71          2.5530     0.5200     0.3790 hc         1 78N       0.073200
     31 H72          2.8530    -0.1070    -1.2170 hc         1 78N       0.073200
     32 H61C         2.2000    -2.4160    -0.4290 hc         1 78N       0.054200
     33 H62C         1.8710    -1.7660     1.1640 hc         1 78N       0.054200
     34 H51C         0.1480    -0.2300     0.1600 hc         1 78N       0.037700
     35 H52C         0.4710    -0.9190    -1.4160 hc         1 78N       0.037700
     36 H41C        -0.2160    -3.1810    -0.5420 hc         1 78N       0.042200
     37 H42C        -0.5890    -2.4510     1.0060 hc         1 78N       0.042200
     38 H31C        -2.2690    -0.9530    -0.1300 hc         1 78N       0.044700
     39 H32C        -1.8930    -1.7230    -1.6540 hc         1 78N       0.044700
     40 H2          -2.6710    -3.9620    -0.6890 ha         1 78N       0.165000
     41 H1          -4.7150    -3.7680     0.4360 ha         1 78N       0.166000
     42 H91C        -5.0640    -1.8410     1.9340 hc         1 78N       0.043200
     43 H92C        -3.9530    -0.8400     1.0240 hc         1 78N       0.043200
     44 H101        -5.5130    -0.9170    -0.9380 hc         1 78N       0.039700
     45 H102        -6.6350    -1.8860    -0.0050 hc         1 78N       0.039700
     46 H111        -6.8440    -0.0210     1.6640 hc         1 78N       0.037200
     47 H112        -5.7210     0.9380     0.7210 hc         1 78N       0.037200
     48 H121        -7.3040     0.8230    -1.2360 hc         1 78N       0.037200
     49 H122        -8.4370    -0.0710    -0.2470 hc         1 78N       0.037200
     50 H131        -8.5670     1.8700     1.3410 hc         1 78N       0.036700
     51 H132        -7.4390     2.7560     0.3380 hc         1 78N       0.036700
     52 H141        -9.0530     2.6240    -1.5780 hc         1 78N       0.036700
     53 H142       -10.1830     1.7620    -0.5590 hc         1 78N       0.036700
     54 H151       -10.7740     4.1840    -0.6600 hc         1 78N       0.031367
     55 H152       -10.3120     3.7530     0.9830 hc         1 78N       0.031367
     56 H153        -9.1790     4.6160    -0.0520 hc         1 78N       0.031367
@<TRIPOS>BOND
     1     1     2 1   
     2     1    23 1   
     3     2     3 1   
     4     2    24 1   
     5     2    25 1   
     6     3     4 1   
     7     3     5 1   
     8     3    26 1   
     9     4    27 1   
    10     5     6 1   
    11     5    28 1   
    12     5    29 1   
    13     6     7 1   
    14     7     8 2   
    15     7     9 1   
    16     9    10 1   
    17     9    30 1   
    18     9    31 1   
    19    10    11 1   
    20    10    32 1   
    21    10    33 1   
    22    11    12 1   
    23    11    34 1   
    24    11    35 1   
    25    12    13 1   
    26    12    36 1   
    27    12    37 1   
    28    13    14 1   
    29    13    38 1   
    30    13    39 1   
    31    14    15 2   
    32    14    40 1   
    33    15    16 1   
    34    15    41 1   
    35    16    17 1   
    36    16    42 1   
    37    16    43 1   
    38    17    18 1   
    39    17    44 1   
    40    17    45 1   
    41    18    19 1   
    42    18    46 1   
    43    18    47 1   
    44    19    20 1   
    45    19    48 1   
    46    19    49 1   
    47    20    22 1   
    48    20    50 1   
    49    20    51 1   
    50    21    22 1   
    51    21    54 1   
    52    21    55 1   
    53    21    56 1   
    54    22    52 1   
    55    22    53 1   
@<TRIPOS>SUBSTRUCTURE
     1 78N         1 TEMP              0 ****  ****    0 ROOT
