@<TRIPOS>MOLECULE
78O
   60    61     1     0     0
SMALL
bcc


@<TRIPOS>ATOM
      1 N1           7.7770     2.8080     0.1850 n7         1 78O      -0.566000
      2 N2           6.8490     2.0550     0.9300 n7         1 78O      -0.559000
      3 C5           6.9180     0.2040    -0.7590 c6         1 78O      -0.102400
      4 C6           7.8320     1.0760    -1.6090 c6         1 78O      -0.113400
      5 C7           8.6150     2.0280    -0.7160 c6         1 78O       0.111800
      6 C8           6.0690     1.1080     0.1470 c6         1 78O       0.068500
      7 C23         -7.8350     1.9330    -0.1260 c          1 78O       0.938600
      8 C24         -6.6170     1.3120    -0.8390 c3         1 78O      -0.206700
      9 C25         -7.0450     0.7680    -2.2010 c3         1 78O      -0.061100
     10 C26         -5.9880     0.2190     0.0290 c3         1 78O       0.171100
     11 C27         -4.6280    -0.2180    -0.5040 c3         1 78O      -0.090400
     12 C28         -3.9480    -1.3170     0.3170 c3         1 78O      -0.052200
     13 C29          5.2080     0.2830     1.0770 c          1 78O       0.653100
     14 C30          3.4530    -1.3400     1.0950 c3         1 78O       0.207400
     15 C31          2.2950    -1.5970     0.1670 ca         1 78O      -0.097300
     16 C32          0.9950    -1.4080     0.6140 ca         1 78O      -0.112000
     17 C33         -0.1110    -1.6670    -0.2010 ca         1 78O      -0.025800
     18 C34          0.1250    -2.1220    -1.5000 ca         1 78O      -0.116000
     19 C35          1.4200    -2.3110    -1.9550 ca         1 78O      -0.137000
     20 C36          2.5060    -2.0520    -1.1310 ca         1 78O      -0.113000
     21 C37         -1.4530    -1.4210     0.3370 ce         1 78O      -0.156200
     22 C38         -2.6180    -1.6690    -0.2650 c2         1 78O      -0.114200
     23 C40          4.1760    -2.6220     1.4730 c3         1 78O      -0.114100
     24 O45          5.3070     0.2720     2.2780 o          1 78O      -0.530000
     25 O46         -5.8210     0.7160     1.3510 os         1 78O      -0.407600
     26 O47          4.3380    -0.4450     0.3920 os         1 78O      -0.425900
     27 H1           7.3600     1.5740     1.6600 hn         1 78O       0.386800
     28 H4           6.2760    -0.4130    -1.3890 hc         1 78O       0.057200
     29 H5           7.5170    -0.4740    -0.1410 hc         1 78O       0.057200
     30 H6           8.5160     0.4560    -2.1930 hc         1 78O       0.048200
     31 H7           7.2340     1.6510    -2.3240 hc         1 78O       0.048200
     32 H8           9.2010     2.7310    -1.3100 h1         1 78O       0.055700
     33 H9           9.3250     1.4570    -0.1080 h1         1 78O       0.055700
     34 H10          5.3930     1.6860    -0.4960 h1         1 78O       0.091700
     35 H23         -5.8660     2.0950    -0.9930 hc         1 78O       0.042700
     36 H25         -7.5180     1.5470    -2.8010 hc         1 78O       0.013033
     37 H26         -6.2030     0.3880    -2.7810 hc         1 78O       0.013033
     38 H27         -6.6650    -0.6470     0.0390 h1         1 78O       0.040700
     39 H28         -4.7400    -0.5680    -1.5340 hc         1 78O       0.040700
     40 H29         -3.9670     0.6540    -0.5470 hc         1 78O       0.040700
     41 H30         -3.8220    -0.9930     1.3530 hc         1 78O       0.049200
     42 H31         -4.5920    -2.2040     0.3340 hc         1 78O       0.049200
     43 H32          3.0900    -0.8430     1.9980 h1         1 78O       0.070700
     44 H33          0.8280    -1.0470     1.6240 ha         1 78O       0.132000
     45 H34         -0.7020    -2.3210    -2.1710 ha         1 78O       0.134000
     46 H35          1.5870    -2.6600    -2.9660 ha         1 78O       0.125000
     47 H36          3.5110    -2.2030    -1.5070 ha         1 78O       0.128000
     48 H37         -1.4740    -0.9790     1.3300 ha         1 78O       0.126000
     49 H38         -2.6360    -2.1130    -1.2570 ha         1 78O       0.109000
     50 H39         -7.5670     0.0010     2.2210 h1         1 78O       0.018700
     51 H40         -6.1610    -1.0680     2.3780 h1         1 78O       0.018700
     52 H41         -6.2370     0.4310     3.3110 h1         1 78O       0.018700
     53 H42          4.9880    -2.4350     2.1740 hc         1 78O       0.047700
     54 H43          3.4730    -3.3020     1.9550 hc         1 78O       0.047700
     55 H44          4.5800    -3.1240     0.5940 hc         1 78O       0.047700
     56 OXT         -7.8200     3.1650     0.0730 o          1 78O      -0.842300
     57 H2           7.2570     3.5040    -0.3360 hn         1 78O       0.371800
     58 O44         -8.7630     1.1510     0.1700 o          1 78O      -0.842300
     59 C39         -6.4810    -0.0200     2.3480 c3         1 78O       0.133700
     60 H24         -7.7640    -0.0430    -2.0830 hc         1 78O       0.013033
@<TRIPOS>BOND
     1     1     2 1   
     2     1     5 1   
     3     1    57 1   
     4     2     6 1   
     5     2    27 1   
     6     3     4 1   
     7     3     6 1   
     8     3    28 1   
     9     3    29 1   
    10     4     5 1   
    11     4    30 1   
    12     4    31 1   
    13     5    32 1   
    14     5    33 1   
    15     6    13 1   
    16     6    34 1   
    17     7     8 1   
    18     7    56 1   
    19     7    58 1   
    20     8     9 1   
    21     8    10 1   
    22     8    35 1   
    23     9    36 1   
    24     9    37 1   
    25     9    60 1   
    26    10    11 1   
    27    10    25 1   
    28    10    38 1   
    29    11    12 1   
    30    11    39 1   
    31    11    40 1   
    32    12    22 1   
    33    12    41 1   
    34    12    42 1   
    35    13    24 2   
    36    13    26 1   
    37    14    15 1   
    38    14    23 1   
    39    14    26 1   
    40    14    43 1   
    41    15    16 ar  
    42    15    20 ar  
    43    16    17 ar  
    44    16    44 1   
    45    17    18 ar  
    46    17    21 1   
    47    18    19 ar  
    48    18    45 1   
    49    19    20 ar  
    50    19    46 1   
    51    20    47 1   
    52    21    22 2   
    53    21    48 1   
    54    22    49 1   
    55    23    53 1   
    56    23    54 1   
    57    23    55 1   
    58    25    59 1   
    59    50    59 1   
    60    51    59 1   
    61    52    59 1   
@<TRIPOS>SUBSTRUCTURE
     1 78O         1 TEMP              0 ****  ****    0 ROOT
