@<TRIPOS>MOLECULE
78O
   60    61     1     0     0
SMALL
No Charge or Current Charge


@<TRIPOS>ATOM
      1 N1           8.6000     1.9310    -0.1360 n7         1 78O      -0.621200
      2 N2           7.6850     1.1740     0.7370 n7         1 78O      -0.614200
      3 C5           6.0900     0.8340    -1.1910 c6         1 78O      -0.102400
      4 C6           7.0680     1.6150    -2.0970 c6         1 78O      -0.113400
      5 C7           8.5070     1.4870    -1.5540 c6         1 78O       0.111800
      6 C8           6.2450     1.2840     0.2930 c6         1 78O       0.068500
      7 C23         -7.9020     1.7950    -0.4210 c          1 78O       0.728000
      8 C24         -6.4300     1.4900    -0.7660 c3         1 78O      -0.206700
      9 C25         -6.2200     1.5320    -2.3020 c3         1 78O      -0.061100
     10 C26         -5.9930     0.1500    -0.1150 c3         1 78O       0.194300
     11 C27         -4.5000    -0.2180    -0.3570 c3         1 78O      -0.090400
     12 C28         -4.0260    -1.5290     0.3110 c3         1 78O      -0.052200
     13 C29          5.2560     0.5720     1.2850 c          1 78O       0.604100
     14 C30          3.4300    -1.0230     1.4920 c3         1 78O       0.230600
     15 C31          2.3090    -1.5210     0.5800 ca         1 78O      -0.097300
     16 C32          0.9640    -1.2280     0.8870 ca         1 78O      -0.094000
     17 C33         -0.0860    -1.6820     0.0640 ca         1 78O      -0.025800
     18 C34          0.2260    -2.4330    -1.0890 ca         1 78O      -0.098000
     19 C35          1.5630    -2.7280    -1.4040 ca         1 78O      -0.119000
     20 C36          2.6000    -2.2760    -0.5740 ca         1 78O      -0.095000
     21 C37         -1.4920    -1.3420     0.4330 ce         1 78O      -0.206200
     22 C38         -2.6110    -1.8940    -0.0890 c2         1 78O      -0.164200
     23 C40          4.1860    -2.1920     2.1640 c3         1 78O      -0.114100
     24 O45          5.2570     0.8070     2.4880 o          1 78O      -0.481000
     25 O46         -6.1930     0.2920     1.3070 os         1 78O      -0.454000
     26 O47          4.3600    -0.2800     0.6810 os         1 78O      -0.449100
     27 H1           7.9800     0.1950     0.9140 hn         1 78O       0.442000
     28 H4           5.0590     1.0010    -1.5340 hc         1 78O       0.057200
     29 H5           6.2820    -0.2450    -1.2790 hc         1 78O       0.057200
     30 H6           7.0180     1.2330    -3.1250 hc         1 78O       0.048200
     31 H7           6.7780     2.6750    -2.1380 hc         1 78O       0.048200
     32 H8           9.1940     2.0820    -2.1740 h1         1 78O       0.055700
     33 H9           8.8280     0.4370    -1.6290 h1         1 78O       0.055700
     34 H10          5.9490     2.3420     0.3400 h1         1 78O       0.091700
     35 H23         -5.8140     2.2890    -0.3350 hc         1 78O       0.042700
     36 H25         -6.6430     2.4540    -2.7190 hc         1 78O       0.013033
     37 H26         -5.1540     1.5140    -2.5580 hc         1 78O       0.013033
     38 H27         -6.6210    -0.6540    -0.5230 h1         1 78O       0.040700
     39 H28         -4.3320    -0.3200    -1.4350 hc         1 78O       0.040700
     40 H29         -3.8640     0.6090    -0.0170 hc         1 78O       0.040700
     41 H30         -4.0830    -1.4280     1.4010 hc         1 78O       0.049200
     42 H31         -4.7090    -2.3410     0.0330 hc         1 78O       0.049200
     43 H32          2.9900    -0.3820     2.2690 h1         1 78O       0.070700
     44 H33          0.7320    -0.6460     1.7760 ha         1 78O       0.114000
     45 H34         -0.5570    -2.7840    -1.7540 ha         1 78O       0.116000
     46 H35          1.7950    -3.3050    -2.2960 ha         1 78O       0.107000
     47 H36          3.6320    -2.5070    -0.8310 ha         1 78O       0.110000
     48 H37         -1.5870    -0.5800     1.2080 ha         1 78O       0.176000
     49 H38         -2.5600    -2.6700    -0.8520 ha         1 78O       0.159000
     50 H39         -7.9250    -0.8670     1.5330 h1         1 78O       0.018700
     51 H40         -6.3990    -1.7430     1.7970 h1         1 78O       0.018700
     52 H41         -6.9920    -0.5990     3.0210 h1         1 78O       0.018700
     53 H42          4.9190    -1.8250     2.8900 hc         1 78O       0.047700
     54 H43          3.4800    -2.8380     2.6990 hc         1 78O       0.047700
     55 H44          4.7100    -2.8010     1.4190 hc         1 78O       0.047700
     56 OXT         -8.1510     2.8260     0.1870 o          1 78O      -0.737000
     57 H2           8.5210     2.9590    -0.0370 hn         1 78O       0.427000
     58 O44         -8.7690     1.0290    -0.8200 o          1 78O      -0.737000
     59 C39         -6.9100    -0.7830     1.9420 c3         1 78O       0.156900
     60 H24         -6.7090     0.6800    -2.7900 hc         1 78O       0.013033
@<TRIPOS>BOND
     1     1     2 1   
     2     1     5 1   
     3     1    57 1   
     4     2     6 1   
     5     2    27 1   
     6     3     4 1   
     7     3     6 1   
     8     3    28 1   
     9     3    29 1   
    10     4     5 1   
    11     4    30 1   
    12     4    31 1   
    13     5    32 1   
    14     5    33 1   
    15     6    13 1   
    16     6    34 1   
    17     7     8 1   
    18     7    56 1   
    19     7    58 1   
    20     8     9 1   
    21     8    10 1   
    22     8    35 1   
    23     9    36 1   
    24     9    37 1   
    25     9    60 1   
    26    10    11 1   
    27    10    25 1   
    28    10    38 1   
    29    11    12 1   
    30    11    39 1   
    31    11    40 1   
    32    12    22 1   
    33    12    41 1   
    34    12    42 1   
    35    13    24 2   
    36    13    26 1   
    37    14    15 1   
    38    14    23 1   
    39    14    26 1   
    40    14    43 1   
    41    15    16 ar  
    42    15    20 ar  
    43    16    17 ar  
    44    16    44 1   
    45    17    18 ar  
    46    17    21 1   
    47    18    19 ar  
    48    18    45 1   
    49    19    20 ar  
    50    19    46 1   
    51    20    47 1   
    52    21    22 2   
    53    21    48 1   
    54    22    49 1   
    55    23    53 1   
    56    23    54 1   
    57    23    55 1   
    58    25    59 1   
    59    50    59 1   
    60    51    59 1   
    61    52    59 1   
@<TRIPOS>SUBSTRUCTURE
     1 78O         1 TEMP              0 ****  ****    0 ROOT
