@<TRIPOS>MOLECULE
78P
   34    36     1     0     0
SMALL
No Charge or Current Charge


@<TRIPOS>ATOM
      1 C4          -1.2390     0.3130    -0.0950 ca         1 78P      -0.033200
      2 C5          -2.5820    -0.0670     0.1070 ca         1 78P      -0.158600
      3 C6          -3.5510     0.9600    -0.0520 ca         1 78P      -0.063000
      4 C8           0.9700     0.4290    -0.3050 cc         1 78P       0.419800
      5 C10         -2.9580    -1.4890     0.4710 c          1 78P       0.629700
      6 C13          2.4190    -0.0960    -0.3290 c5         1 78P       0.147900
      7 C15          4.1070    -1.3000     0.8400 c5         1 78P       0.137800
      8 C17          3.3800     0.9700     0.2750 c5         1 78P      -0.092400
      9 C1          -3.1620     2.2770    -0.3940 ca         1 78P      -0.154000
     10 C2          -1.8020     2.6000    -0.5850 ca         1 78P      -0.020000
     11 C3          -0.8530     1.5830    -0.4260 ca         1 78P       0.051400
     12 N7           0.5300     1.6800    -0.5670 nd         1 78P      -0.580100
     13 N9          -0.0940    -0.4200    -0.0210 na         1 78P      -0.281600
     14 N11         -4.2650    -1.7760     0.6500 nt         1 78P      -0.598000
     15 O12         -2.1380    -2.3830     0.6070 o          1 78P      -0.636100
     16 N14          2.6380    -1.2130     0.6430 n7         1 78P      -0.837400
     17 C16          4.6490     0.1430     0.6280 c5         1 78P      -0.112400
     18 C18          2.8040    -0.5320    -1.7730 c3         1 78P      -0.075100
     19 H6          -4.6100     0.7550     0.0850 ha         1 78P       0.103000
     20 H151         4.3520    -1.6910     1.8380 h1         1 78P       0.053200
     21 H152         4.5540    -1.9850     0.1050 h1         1 78P       0.053200
     22 H171         3.5930     1.7900    -0.4200 hc         1 78P       0.064200
     23 H172         2.9510     1.4230     1.1780 hc         1 78P       0.064200
     24 H1          -3.9190     3.0490    -0.5110 ha         1 78P       0.117000
     25 H2          -1.4970     3.6100    -0.8480 ha         1 78P       0.130000
     26 H9          -0.0160    -1.4050     0.1980 hn         1 78P       0.397000
     27 H111        -4.9620    -1.0560     0.5430 hn         1 78P       0.316000
     28 H112        -4.5310    -2.7180     0.8920 hn         1 78P       0.316000
     29 H141         2.2290    -0.9270     1.5420 hn         1 78P       0.406000
     30 H161         5.1510     0.5300     1.5220 hc         1 78P       0.048700
     31 H162         5.3840     0.1670    -0.1850 hc         1 78P       0.048700
     32 H181         3.8400    -0.8760    -1.8590 hc         1 78P       0.046033
     33 H182         2.1570    -1.3470    -2.1190 hc         1 78P       0.046033
     34 H183         2.6820     0.3020    -2.4740 hc         1 78P       0.046033
@<TRIPOS>BOND
     1     1     2 ar  
     2     1    11 ar  
     3     1    13 1   
     4     2     3 ar  
     5     2     5 1   
     6     3     9 ar  
     7     3    19 1   
     8     4     6 1   
     9     4    12 2   
    10     4    13 1   
    11     5    14 1   
    12     5    15 2   
    13     6     8 1   
    14     6    16 1   
    15     6    18 1   
    16     7    16 1   
    17     7    17 1   
    18     7    20 1   
    19     7    21 1   
    20     8    17 1   
    21     8    22 1   
    22     8    23 1   
    23     9    10 ar  
    24     9    24 1   
    25    10    11 ar  
    26    10    25 1   
    27    11    12 1   
    28    13    26 1   
    29    14    27 1   
    30    14    28 1   
    31    16    29 1   
    32    17    30 1   
    33    17    31 1   
    34    18    32 1   
    35    18    33 1   
    36    18    34 1   
@<TRIPOS>SUBSTRUCTURE
     1 78P         1 TEMP              0 ****  ****    0 ROOT
