@<TRIPOS>MOLECULE
78P
   34    36     1     0     0
SMALL
abcg2


@<TRIPOS>ATOM
      1 C4          -1.2160     0.2650    -0.0440 ca         1 78P      -0.033200
      2 C5          -2.5630    -0.0800     0.1030 ca         1 78P      -0.158600
      3 C6          -3.4740     0.9660    -0.0210 ca         1 78P      -0.063000
      4 C8           0.9720     0.4060    -0.2080 cc         1 78P       0.419800
      5 C10         -2.9250    -1.4960     0.3800 c          1 78P       0.629700
      6 C13          2.3860    -0.0740    -0.2720 c5         1 78P       0.147900
      7 C15          4.0530    -1.2060     0.8960 c5         1 78P       0.137800
      8 C17          3.4120     1.0070     0.0990 c5         1 78P      -0.092400
      9 C1          -3.0700     2.2770    -0.2800 ca         1 78P      -0.154000
     10 C2          -1.7330     2.6040    -0.4270 ca         1 78P      -0.020000
     11 C3          -0.7970     1.5830    -0.3070 ca         1 78P       0.051400
     12 N7           0.5740     1.6310    -0.4020 nd         1 78P      -0.580100
     13 N9          -0.0580    -0.4540     0.0100 na         1 78P      -0.281600
     14 N11         -4.2270    -1.8070     0.4350 nt         1 78P      -0.598000
     15 O12         -2.0460    -2.3360     0.5500 o          1 78P      -0.636100
     16 N14          2.6000    -1.1390     0.7140 n7         1 78P      -0.837400
     17 C16          4.6330     0.1830     0.5240 c5         1 78P      -0.112400
     18 C18          2.6510    -0.6150    -1.6820 c3         1 78P      -0.075100
     19 H6          -4.5360     0.7880     0.0880 ha         1 78P       0.103000
     20 H151         4.2740    -1.4890     1.9250 h1         1 78P       0.053200
     21 H152         4.4770    -1.9820     0.2560 h1         1 78P       0.053200
     22 H171         3.6190     1.7000    -0.7170 hc         1 78P       0.064200
     23 H172         3.0330     1.5950     0.9380 hc         1 78P       0.064200
     24 H1          -3.8240     3.0490    -0.3650 ha         1 78P       0.117000
     25 H2          -1.4210     3.6210    -0.6270 ha         1 78P       0.130000
     26 H9           0.0140    -1.4430     0.1920 hn         1 78P       0.397000
     27 H111        -4.9630    -1.1510     0.2460 hn         1 78P       0.316000
     28 H112        -4.5010    -2.7590     0.6110 hn         1 78P       0.316000
     29 H141         2.1960    -0.8370     1.5940 hn         1 78P       0.406000
     30 H161         5.1530     0.6460     1.3620 hc         1 78P       0.048700
     31 H162         5.3560     0.0950    -0.2880 hc         1 78P       0.048700
     32 H181         3.6780    -0.9690    -1.7800 hc         1 78P       0.046033
     33 H182         1.9860    -1.4470    -1.9150 hc         1 78P       0.046033
     34 H183         2.5000     0.1680    -2.4250 hc         1 78P       0.046033
@<TRIPOS>BOND
     1     1     2 ar  
     2     1    11 ar  
     3     1    13 1   
     4     2     3 ar  
     5     2     5 1   
     6     3     9 ar  
     7     3    19 1   
     8     4     6 1   
     9     4    12 2   
    10     4    13 1   
    11     5    14 1   
    12     5    15 2   
    13     6     8 1   
    14     6    16 1   
    15     6    18 1   
    16     7    16 1   
    17     7    17 1   
    18     7    20 1   
    19     7    21 1   
    20     8    17 1   
    21     8    22 1   
    22     8    23 1   
    23     9    10 ar  
    24     9    24 1   
    25    10    11 ar  
    26    10    25 1   
    27    11    12 1   
    28    13    26 1   
    29    14    27 1   
    30    14    28 1   
    31    16    29 1   
    32    17    30 1   
    33    17    31 1   
    34    18    32 1   
    35    18    33 1   
    36    18    34 1   
@<TRIPOS>SUBSTRUCTURE
     1 78P         1 TEMP              0 ****  ****    0 ROOT
