@<TRIPOS>MOLECULE
78Q
   57    58     1     0     0
SMALL
No Charge or Current Charge


@<TRIPOS>ATOM
      1 N2           7.3100     1.0460    -0.1610 n7         1 78Q      -0.589200
      2 N1           7.7380     2.3060    -0.7820 n7         1 78Q      -0.636200
      3 C5           4.9450     1.4890    -0.8220 c6         1 78Q      -0.103400
      4 C7           6.9390     2.5650    -2.0080 c6         1 78Q       0.113800
      5 C8           5.9100     1.1990     0.3730 c6         1 78Q       0.097500
      6 C6           5.4370     2.7030    -1.6520 c6         1 78Q      -0.076400
      7 C23         -6.9810     2.1650    -0.8280 c          1 78Q       0.727000
      8 C24         -5.6010     1.5300    -1.0920 c3         1 78Q      -0.205700
      9 C25         -5.4940     1.0780    -2.5720 c3         1 78Q      -0.060100
     10 C26         -5.3290     0.3920    -0.0730 c3         1 78Q       0.192300
     11 C27         -3.9310    -0.2760    -0.2220 c3         1 78Q      -0.089400
     12 C28         -3.6170    -1.3890     0.8040 c3         1 78Q      -0.052200
     13 C29          5.4750    -0.0120     1.2700 c          1 78Q       0.596100
     14 C30          3.8920    -1.8020     1.5950 c3         1 78Q       0.216900
     15 C31          2.6460    -2.3570     0.9170 ca         1 78Q      -0.104300
     16 C32          1.3900    -1.7640     1.1510 ca         1 78Q      -0.083000
     17 C33          0.2260    -2.2660     0.5340 ca         1 78Q      -0.027800
     18 C34          0.3360    -3.3720    -0.3360 ca         1 78Q      -0.095000
     19 C35          1.5880    -3.9650    -0.5750 ca         1 78Q      -0.117000
     20 C36          2.7400    -3.4610     0.0500 ca         1 78Q      -0.100000
     21 C37         -1.0830    -1.6020     0.8100 ce         1 78Q      -0.208200
     22 C38         -2.3070    -2.0880     0.5060 c2         1 78Q      -0.163200
     23 O44         -7.9800     1.4700    -0.9570 o          1 78Q      -0.736500
     24 O45          6.1000    -0.3450     2.2720 o          1 78Q      -0.486000
     25 O46         -5.4040     0.9820     1.2410 os         1 78Q      -0.455000
     26 O47          4.3540    -0.6760     0.8320 os         1 78Q      -0.440100
     27 H1           7.3540     0.2410    -0.8090 hn         1 78Q       0.386000
     28 H2           4.8820     0.6060    -1.4730 hc         1 78Q       0.055700
     29 H3           3.9290     1.6810    -0.4520 hc         1 78Q       0.055700
     30 H4           7.2870     3.4930    -2.4840 h1         1 78Q       0.035200
     31 H5           7.0840     1.7450    -2.7270 h1         1 78Q       0.035200
     32 H9           5.8790     2.0620     1.0540 h1         1 78Q       0.112700
     33 H16          4.8410     2.8050    -2.5680 hc         1 78Q       0.053200
     34 H17          5.2850     3.6260    -1.0760 hc         1 78Q       0.053200
     35 H26         -4.8420     2.3070    -0.9390 hc         1 78Q       0.043700
     36 H27         -5.7990     1.8910    -3.2420 hc         1 78Q       0.013033
     37 H28         -4.4650     0.8080    -2.8320 hc         1 78Q       0.013033
     38 H29         -6.1400     0.2130    -2.7670 hc         1 78Q       0.013033
     39 H30         -6.1000    -0.3810    -0.2040 h1         1 78Q       0.043700
     40 H31         -3.8570    -0.7210    -1.2210 hc         1 78Q       0.039700
     41 H32         -3.1530     0.4950    -0.1650 hc         1 78Q       0.039700
     42 H33         -3.5810    -0.9590     1.8120 hc         1 78Q       0.050200
     43 H34         -4.4350    -2.1210     0.8020 hc         1 78Q       0.050200
     44 H35          3.6450    -1.5030     2.6220 h1         1 78Q       0.053200
     45 H36          4.6640    -2.5820     1.6460 h1         1 78Q       0.053200
     46 H37          1.3190    -0.9090     1.8180 ha         1 78Q       0.115000
     47 H38         -0.5370    -3.7740    -0.8400 ha         1 78Q       0.117000
     48 H39          1.6640    -4.8160    -1.2480 ha         1 78Q       0.109000
     49 H40          3.7040    -3.9260    -0.1440 ha         1 78Q       0.106000
     50 H41         -1.0050    -0.6380     1.3170 ha         1 78Q       0.176000
     51 H42         -2.4300    -3.0530     0.0150 ha         1 78Q       0.159000
     52 H43         -6.2070     0.7880     3.1620 h1         1 78Q       0.018367
     53 H44         -7.2730     0.2500     1.8460 h1         1 78Q       0.018367
     54 H45         -5.8850    -0.7500     2.3340 h1         1 78Q       0.018367
     55 H6           8.7580     2.3540    -0.9660 hn         1 78Q       0.430000
     56 OXT         -7.0270     3.3570    -0.5590 o          1 78Q      -0.736500
     57 C39         -6.2310     0.2810     2.1890 c3         1 78Q       0.156900
@<TRIPOS>BOND
     1     1     2 1   
     2     1     5 1   
     3     1    27 1   
     4     2     4 1   
     5     2    55 1   
     6     3     5 1   
     7     3     6 1   
     8     3    28 1   
     9     3    29 1   
    10     4     6 1   
    11     4    30 1   
    12     4    31 1   
    13     5    13 1   
    14     5    32 1   
    15     6    33 1   
    16     6    34 1   
    17     7     8 1   
    18     7    23 1   
    19     7    56 1   
    20     8     9 1   
    21     8    10 1   
    22     8    35 1   
    23     9    36 1   
    24     9    37 1   
    25     9    38 1   
    26    10    11 1   
    27    10    25 1   
    28    10    39 1   
    29    11    12 1   
    30    11    40 1   
    31    11    41 1   
    32    12    22 1   
    33    12    42 1   
    34    12    43 1   
    35    13    24 2   
    36    13    26 1   
    37    14    15 1   
    38    14    26 1   
    39    14    44 1   
    40    14    45 1   
    41    15    16 ar  
    42    15    20 ar  
    43    16    17 ar  
    44    16    46 1   
    45    17    18 ar  
    46    17    21 1   
    47    18    19 ar  
    48    18    47 1   
    49    19    20 ar  
    50    19    48 1   
    51    20    49 1   
    52    21    22 2   
    53    21    50 1   
    54    22    51 1   
    55    25    57 1   
    56    52    57 1   
    57    53    57 1   
    58    54    57 1   
@<TRIPOS>SUBSTRUCTURE
     1 78Q         1 TEMP              0 ****  ****    0 ROOT
