@<TRIPOS>MOLECULE
78Q
   57    58     1     0     0
SMALL
abcg2


@<TRIPOS>ATOM
      1 N2           7.1940     1.5680     0.8950 n7         1 78Q      -0.589200
      2 N1           7.5700     2.7470     0.2120 n7         1 78Q      -0.636200
      3 C5           6.2470     0.7020    -1.2300 c6         1 78Q      -0.103400
      4 C7           8.0080     2.4860    -1.1500 c6         1 78Q       0.113800
      5 C8           6.0090     1.0280     0.2550 c6         1 78Q       0.097500
      6 C6           6.8350     1.9200    -1.9360 c6         1 78Q      -0.076400
      7 C23         -7.7960     1.6560    -0.3780 c          1 78Q       0.727000
      8 C24         -6.4790     1.0840    -0.9430 c3         1 78Q      -0.205700
      9 C25         -6.7810     0.2060    -2.1570 c3         1 78Q      -0.060100
     10 C26         -5.7310     0.3150     0.1450 c3         1 78Q       0.192300
     11 C27         -4.3610    -0.1780    -0.3100 c3         1 78Q      -0.089400
     12 C28         -3.5850    -0.9320     0.7730 c3         1 78Q      -0.052200
     13 C29          5.5450    -0.1980     1.0070 c          1 78Q       0.596100
     14 C30          3.8120    -1.8060     1.1390 c3         1 78Q       0.216900
     15 C31          2.5490    -2.1040     0.3910 ca         1 78Q      -0.104300
     16 C32          1.3380    -1.5670     0.8130 ca         1 78Q      -0.083000
     17 C33          0.1480    -1.8130     0.1270 ca         1 78Q      -0.027800
     18 C34          0.2060    -2.6070    -1.0240 ca         1 78Q      -0.095000
     19 C35          1.4080    -3.1450    -1.4520 ca         1 78Q      -0.117000
     20 C36          2.5800    -2.8980    -0.7490 ca         1 78Q      -0.100000
     21 C37         -1.1010    -1.2390     0.6390 ce         1 78Q      -0.208200
     22 C38         -2.3350    -1.5410     0.2310 c2         1 78Q      -0.163200
     23 O44         -8.6010     0.8280     0.0970 o          1 78Q      -0.736500
     24 O45          6.1680    -0.7550     1.8750 o          1 78Q      -0.486000
     25 O46         -5.5750     1.1710     1.2700 os         1 78Q      -0.455000
     26 O47          4.3620    -0.6050     0.5690 os         1 78Q      -0.440100
     27 H1           7.9390     0.8740     0.8270 hn         1 78Q       0.386000
     28 H2           6.9480    -0.1370    -1.2980 hc         1 78Q       0.055700
     29 H3           5.3200     0.3900    -1.7140 hc         1 78Q       0.055700
     30 H4           8.3460     3.4270    -1.5900 h1         1 78Q       0.035200
     31 H5           8.8560     1.7840    -1.1890 h1         1 78Q       0.035200
     32 H9           5.2230     1.7880     0.3260 h1         1 78Q       0.112700
     33 H16          7.1520     1.6510    -2.9450 hc         1 78Q       0.053200
     34 H17          6.0660     2.6930    -2.0330 hc         1 78Q       0.053200
     35 H26         -5.8460     1.9190    -1.2670 hc         1 78Q       0.043700
     36 H27         -7.3840     0.7470    -2.8890 hc         1 78Q       0.013033
     37 H28         -5.8740    -0.1190    -2.6680 hc         1 78Q       0.013033
     38 H29         -7.3380    -0.6860    -1.8660 hc         1 78Q       0.013033
     39 H30         -6.3370    -0.5570     0.4270 h1         1 78Q       0.043700
     40 H31         -4.4920    -0.8430    -1.1680 hc         1 78Q       0.039700
     41 H32         -3.7640     0.6680    -0.6660 hc         1 78Q       0.039700
     42 H33         -3.3500    -0.2690     1.6070 hc         1 78Q       0.050200
     43 H34         -4.2220    -1.7320     1.1690 hc         1 78Q       0.050200
     44 H35          3.6180    -1.6520     2.2020 h1         1 78Q       0.053200
     45 H36          4.5280    -2.6230     1.0380 h1         1 78Q       0.053200
     46 H37          1.3150    -0.9490     1.7050 ha         1 78Q       0.115000
     47 H38         -0.6920    -2.8050    -1.5950 ha         1 78Q       0.117000
     48 H39          1.4330    -3.7600    -2.3430 ha         1 78Q       0.109000
     49 H40          3.5160    -3.3250    -1.0880 ha         1 78Q       0.106000
     50 H41         -0.9850    -0.5130     1.4400 ha         1 78Q       0.176000
     51 H42         -2.4770    -2.2770    -0.5570 ha         1 78Q       0.159000
     52 H43         -5.9600     1.4340     3.2400 h1         1 78Q       0.018367
     53 H44         -7.1740     0.4620     2.3930 h1         1 78Q       0.018367
     54 H45         -5.6000    -0.2410     2.8080 h1         1 78Q       0.018367
     55 H6           8.3010     3.1870     0.7520 hn         1 78Q       0.430000
     56 OXT         -7.9730     2.8880    -0.4640 o          1 78Q      -0.736500
     57 C39         -6.1030     0.6730     2.4730 c3         1 78Q       0.156900
@<TRIPOS>BOND
     1     1     2 1   
     2     1     5 1   
     3     1    27 1   
     4     2     4 1   
     5     2    55 1   
     6     3     5 1   
     7     3     6 1   
     8     3    28 1   
     9     3    29 1   
    10     4     6 1   
    11     4    30 1   
    12     4    31 1   
    13     5    13 1   
    14     5    32 1   
    15     6    33 1   
    16     6    34 1   
    17     7     8 1   
    18     7    23 1   
    19     7    56 1   
    20     8     9 1   
    21     8    10 1   
    22     8    35 1   
    23     9    36 1   
    24     9    37 1   
    25     9    38 1   
    26    10    11 1   
    27    10    25 1   
    28    10    39 1   
    29    11    12 1   
    30    11    40 1   
    31    11    41 1   
    32    12    22 1   
    33    12    42 1   
    34    12    43 1   
    35    13    24 2   
    36    13    26 1   
    37    14    15 1   
    38    14    26 1   
    39    14    44 1   
    40    14    45 1   
    41    15    16 ar  
    42    15    20 ar  
    43    16    17 ar  
    44    16    46 1   
    45    17    18 ar  
    46    17    21 1   
    47    18    19 ar  
    48    18    47 1   
    49    19    20 ar  
    50    19    48 1   
    51    20    49 1   
    52    21    22 2   
    53    21    50 1   
    54    22    51 1   
    55    25    57 1   
    56    52    57 1   
    57    53    57 1   
    58    54    57 1   
@<TRIPOS>SUBSTRUCTURE
     1 78Q         1 TEMP              0 ****  ****    0 ROOT
