@<TRIPOS>MOLECULE
78R
   92    95     1     0     0
SMALL
No Charge or Current Charge


@<TRIPOS>ATOM
      1 N2           0.1160    -3.0640     1.8160 n7         1 78R      -0.572400
      2 N1           1.3040    -2.5800     1.1090 n          1 78R      -0.302200
      3 C5          -0.9630    -3.7810    -0.3540 c6         1 78R      -0.099400
      4 C7           1.5260    -3.1750    -0.2440 c6         1 78R       0.083000
      5 C8          -1.1200    -2.9770     0.9790 c6         1 78R       0.081500
      6 C6           0.4940    -4.2810    -0.5860 c6         1 78R      -0.100400
      7 C23         -0.2560     3.1080     0.0590 c          1 78R       0.611100
      8 C24         -1.4620     3.8480    -0.5460 c3         1 78R      -0.158700
      9 C25         -2.0850     4.7940     0.5130 c3         1 78R      -0.086100
     10 C26         -2.4540     2.8080    -1.1300 c3         1 78R       0.193300
     11 C27         -3.7440     3.4100    -1.7730 c3         1 78R      -0.080400
     12 C28         -4.9900     3.3780    -0.8550 c3         1 78R      -0.037200
     13 C29         -2.4600    -3.2570     1.7280 c          1 78R       0.603100
     14 C30         -4.8620    -3.0540     1.4720 c3         1 78R       0.213900
     15 C31         -5.7760    -2.3510     0.4770 ca         1 78R      -0.099300
     16 C32         -5.5100    -1.0130     0.1250 ca         1 78R      -0.077000
     17 C33         -6.3170    -0.3350    -0.8100 ca         1 78R      -0.042800
     18 C34         -7.3990    -1.0160    -1.3990 ca         1 78R      -0.095000
     19 C35         -7.6770    -2.3480    -1.0460 ca         1 78R      -0.114000
     20 C36         -6.8690    -3.0170    -0.1110 ca         1 78R      -0.094000
     21 C37         -6.0130     1.0680    -1.2100 ce         1 78R      -0.172200
     22 C38         -5.3590     1.9680    -0.4420 c2         1 78R      -0.184200
     23 O44         -0.3710     2.3410     1.0040 o          1 78R      -0.590100
     24 O45         -2.5490    -3.2640     2.9510 o          1 78R      -0.477000
     25 O46         -1.7350     2.0790    -2.1440 os         1 78R      -0.471000
     26 O47         -3.5400    -3.0570     0.9060 os         1 78R      -0.445100
     27 N4           0.9620     3.3880    -0.5340 ns         1 78R      -0.493900
     28 C19          2.2730     2.7950    -0.1580 c3         1 78R       0.053700
     29 C18          2.2370     1.2250    -0.1720 c          1 78R       0.609100
     30 O43          1.4470     0.5870    -0.8590 o          1 78R      -0.612100
     31 C20          2.9540     3.4760     1.0800 c3         1 78R      -0.071700
     32 C21          3.1500     4.9950     0.8590 c3         1 78R      -0.089600
     33 C22          2.2560     3.2110     2.4370 c3         1 78R      -0.089600
     34 N3           3.1720     0.5670     0.6020 ns         1 78R      -0.484900
     35 C10          3.2440    -0.9060     0.7110 c3         1 78R       0.043700
     36 C11          4.5960    -1.3680     1.3010 c3         1 78R      -0.048100
     37 C12          5.7910    -0.7950     0.5460 ca         1 78R      -0.048300
     38 C17          6.5940     0.2040     1.1290 ca         1 78R      -0.154000
     39 C16          7.6850     0.7400     0.4240 ca         1 78R      -0.066000
     40 C13          6.0940    -1.2520    -0.7510 ca         1 78R      -0.145000
     41 C14          7.1840    -0.7170    -1.4550 ca         1 78R       0.144100
     42 C15          7.9800     0.2790    -0.8700 ca         1 78R      -0.206000
     43 O42          7.4660    -1.1680    -2.7090 oh         1 78R      -0.533100
     44 C9           2.0390    -1.4350     1.5580 c          1 78R       0.619100
     45 O41          1.7350    -0.8830     2.6130 o          1 78R      -0.535100
     46 H1           0.2700    -4.0210     2.1680 hn         1 78R       0.435000
     47 H2          -1.6380    -4.6490    -0.3560 hc         1 78R       0.060200
     48 H3          -1.2800    -3.1490    -1.1950 hc         1 78R       0.060200
     49 H4           1.4390    -2.3800    -1.0000 h1         1 78R       0.053200
     50 H5           2.5420    -3.5890    -0.3040 h1         1 78R       0.053200
     51 H9          -1.2250    -1.9220     0.6870 h1         1 78R       0.111700
     52 H16          0.6870    -5.1630     0.0390 hc         1 78R       0.053700
     53 H17          0.6220    -4.6080    -1.6270 hc         1 78R       0.053700
     54 H26         -1.1050     4.4740    -1.3730 hc         1 78R       0.057700
     55 H27         -1.3140     5.4460     0.9430 hc         1 78R       0.042033
     56 H28         -2.8520     5.4380     0.0680 hc         1 78R       0.042033
     57 H29         -2.5410     4.2220     1.3300 hc         1 78R       0.042033
     58 H30         -2.7400     2.1240    -0.3180 h1         1 78R       0.054700
     59 H31         -3.5510     4.4450    -2.0790 hc         1 78R       0.048200
     60 H32         -3.9960     2.8790    -2.6980 hc         1 78R       0.048200
     61 H33         -4.8100     3.9920     0.0350 hc         1 78R       0.042700
     62 H34         -5.8310     3.8450    -1.3820 hc         1 78R       0.042700
     63 H35         -4.8920    -2.4930     2.4160 h1         1 78R       0.058200
     64 H36         -5.2080    -4.0770     1.6690 h1         1 78R       0.058200
     65 H37         -4.6520    -0.5140     0.5680 ha         1 78R       0.119000
     66 H38         -8.0270    -0.5110    -2.1290 ha         1 78R       0.111000
     67 H39         -8.5180    -2.8650    -1.5030 ha         1 78R       0.113000
     68 H40         -7.0870    -4.0510     0.1490 ha         1 78R       0.112000
     69 H41         -6.3550     1.3480    -2.2080 ha         1 78R       0.169000
     70 H42         -5.0330     1.7090     0.5670 ha         1 78R       0.171000
     71 H43         -1.6180     0.2780    -3.2060 h1         1 78R       0.039033
     72 H44         -2.2070     0.1240    -1.5380 h1         1 78R       0.039033
     73 H45         -3.2700     0.7860    -2.8020 h1         1 78R       0.039033
     74 H22          0.9360     4.0240    -1.3210 hn         1 78R       0.319500
     75 H14          2.9400     3.0230    -0.9990 h1         1 78R       0.061700
     76 H15          3.9650     3.0580     1.1590 hc         1 78R       0.045700
     77 H18          2.1850     5.5160     0.8070 hc         1 78R       0.039200
     78 H19          3.7280     5.4340     1.6800 hc         1 78R       0.039200
     79 H20          3.6930     5.1860    -0.0750 hc         1 78R       0.039200
     80 H23          2.0630     2.1430     2.5900 hc         1 78R       0.039200
     81 H24          2.8870     3.5580     3.2640 hc         1 78R       0.039200
     82 H25          1.3020     3.7480     2.5010 hc         1 78R       0.039200
     83 H21          3.8120     1.1330     1.1450 hn         1 78R       0.333500
     84 H7           3.1790    -1.3010    -0.3080 h1         1 78R       0.062700
     85 H11          4.6420    -1.0810     2.3590 hc         1 78R       0.072700
     86 H12          4.6360    -2.4640     1.2840 hc         1 78R       0.072700
     87 H10          6.3750     0.5690     2.1300 ha         1 78R       0.120000
     88 H6           8.3010     1.5130     0.8810 ha         1 78R       0.115000
     89 H13          5.4830    -2.0220    -1.2150 ha         1 78R       0.127000
     90 H8           8.8260     0.6990    -1.4090 ha         1 78R       0.114000
     91 H46          8.2530    -0.6850    -3.0400 ho         1 78R       0.467000
     92 C39         -2.2360     0.7570    -2.4350 c3         1 78R       0.145900
@<TRIPOS>BOND
     1     1     2 1   
     2     1     5 1   
     3     1    46 1   
     4     2     4 1   
     5     2    44 1   
     6     3     5 1   
     7     3     6 1   
     8     3    47 1   
     9     3    48 1   
    10     4     6 1   
    11     4    49 1   
    12     4    50 1   
    13     5    13 1   
    14     5    51 1   
    15     6    52 1   
    16     6    53 1   
    17     7     8 1   
    18     7    23 2   
    19     7    27 1   
    20     8     9 1   
    21     8    10 1   
    22     8    54 1   
    23     9    55 1   
    24     9    56 1   
    25     9    57 1   
    26    10    11 1   
    27    10    25 1   
    28    10    58 1   
    29    11    12 1   
    30    11    59 1   
    31    11    60 1   
    32    12    22 1   
    33    12    61 1   
    34    12    62 1   
    35    13    24 2   
    36    13    26 1   
    37    14    15 1   
    38    14    26 1   
    39    14    63 1   
    40    14    64 1   
    41    15    16 ar  
    42    15    20 ar  
    43    16    17 ar  
    44    16    65 1   
    45    17    18 ar  
    46    17    21 1   
    47    18    19 ar  
    48    18    66 1   
    49    19    20 ar  
    50    19    67 1   
    51    20    68 1   
    52    21    22 2   
    53    21    69 1   
    54    22    70 1   
    55    25    92 1   
    56    27    28 1   
    57    27    74 1   
    58    28    29 1   
    59    28    31 1   
    60    28    75 1   
    61    29    30 2   
    62    29    34 1   
    63    31    32 1   
    64    31    33 1   
    65    31    76 1   
    66    32    77 1   
    67    32    78 1   
    68    32    79 1   
    69    33    80 1   
    70    33    81 1   
    71    33    82 1   
    72    34    35 1   
    73    34    83 1   
    74    35    36 1   
    75    35    44 1   
    76    35    84 1   
    77    36    37 1   
    78    36    85 1   
    79    36    86 1   
    80    37    38 ar  
    81    37    40 ar  
    82    38    39 ar  
    83    38    87 1   
    84    39    42 ar  
    85    39    88 1   
    86    40    41 ar  
    87    40    89 1   
    88    41    42 ar  
    89    41    43 1   
    90    42    90 1   
    91    43    91 1   
    92    44    45 2   
    93    71    92 1   
    94    72    92 1   
    95    73    92 1   
@<TRIPOS>SUBSTRUCTURE
     1 78R         1 TEMP              0 ****  ****    0 ROOT
