@<TRIPOS>MOLECULE
78R
   92    95     1     0     0
SMALL
abcg2


@<TRIPOS>ATOM
      1 N2          -0.0700    -3.0260     1.2840 n7         1 78R      -0.572400
      2 N1           1.1150    -2.5400     0.7460 n          1 78R      -0.302200
      3 C5          -0.7520    -3.9380    -0.9490 c6         1 78R      -0.099400
      4 C7           1.5950    -3.1390    -0.5100 c6         1 78R       0.083000
      5 C8          -1.1090    -3.0430     0.2720 c6         1 78R       0.081500
      6 C6           0.7210    -4.3260    -0.8740 c6         1 78R      -0.100400
      7 C23         -0.0990     3.1500    -0.0450 c          1 78R       0.611100
      8 C24         -1.3670     3.9210    -0.3650 c3         1 78R      -0.158700
      9 C25         -1.3400     5.2040     0.4700 c3         1 78R      -0.086100
     10 C26         -2.6080     3.0640    -0.0730 c3         1 78R       0.193300
     11 C27         -3.8740     3.7210    -0.6240 c3         1 78R      -0.080400
     12 C28         -5.1930     3.2480     0.0040 c3         1 78R      -0.037200
     13 C29         -2.4100    -3.4850     0.8950 c          1 78R       0.603100
     14 C30         -4.7640    -3.4790     0.5520 c3         1 78R       0.213900
     15 C31         -5.7080    -2.5980    -0.2110 ca         1 78R      -0.099300
     16 C32         -5.5710    -1.2190    -0.1250 ca         1 78R      -0.077000
     17 C33         -6.4050    -0.3530    -0.8320 ca         1 78R      -0.042800
     18 C34         -7.4110    -0.9160    -1.6230 ca         1 78R      -0.095000
     19 C35         -7.5690    -2.2910    -1.7010 ca         1 78R      -0.114000
     20 C36         -6.7150    -3.1360    -1.0060 ca         1 78R      -0.094000
     21 C37         -6.2380     1.1050    -0.7930 ce         1 78R      -0.172200
     22 C38         -5.3950     1.7680     0.0010 c2         1 78R      -0.184200
     23 O44          0.0660     2.5980     1.0300 o          1 78R      -0.590100
     24 O45         -2.5060    -4.0920     1.9310 o          1 78R      -0.477000
     25 O46         -2.4900     1.7950    -0.6870 os         1 78R      -0.471000
     26 O47         -3.4330    -3.1450     0.1250 os         1 78R      -0.445100
     27 N4           0.8500     3.1770    -1.0000 ns         1 78R      -0.493900
     28 C19          2.1370     2.5340    -0.8740 c3         1 78R       0.053700
     29 C18          1.9590     1.0680    -0.4580 c          1 78R       0.609100
     30 O43          1.1350     0.3640    -1.0200 o          1 78R      -0.612100
     31 C20          3.1980     3.3840    -0.1470 c3         1 78R      -0.071700
     32 C21          3.4460     4.6670    -0.9380 c3         1 78R      -0.089600
     33 C22          2.9030     3.7310     1.3100 c3         1 78R      -0.089600
     34 N3           2.8250     0.5620     0.4300 ns         1 78R      -0.484900
     35 C10          2.8970    -0.8560     0.6740 c3         1 78R       0.043700
     36 C11          4.0190    -1.1540     1.6780 c3         1 78R      -0.048100
     37 C12          5.3460    -0.6330     1.1970 ca         1 78R      -0.048300
     38 C17          5.8970     0.5210     1.7490 ca         1 78R      -0.154000
     39 C16          7.0900     1.0270     1.2490 ca         1 78R      -0.066000
     40 C13          6.0060    -1.2740     0.1550 ca         1 78R      -0.145000
     41 C14          7.2050    -0.7690    -0.3410 ca         1 78R       0.144100
     42 C15          7.7480     0.3920     0.2080 ca         1 78R      -0.206000
     43 O42          7.7960    -1.4380    -1.3490 oh         1 78R      -0.533100
     44 C9           1.5770    -1.3700     1.2570 c          1 78R       0.619100
     45 O41          1.0570    -0.7850     2.1840 o          1 78R      -0.535100
     46 H1           0.0880    -3.9480     1.6750 hn         1 78R       0.435000
     47 H2          -1.3620    -4.8440    -0.9770 hc         1 78R       0.060200
     48 H3          -0.9570    -3.3960    -1.8720 hc         1 78R       0.060200
     49 H4           1.5540    -2.3970    -1.3120 h1         1 78R       0.053200
     50 H5           2.6290    -3.4710    -0.4060 h1         1 78R       0.053200
     51 H9          -1.2270    -2.0110    -0.0670 h1         1 78R       0.111700
     52 H16          0.8670    -5.1320    -0.1520 hc         1 78R       0.053700
     53 H17          1.0550    -4.7160    -1.8350 hc         1 78R       0.053700
     54 H26         -1.3770     4.1930    -1.4260 hc         1 78R       0.057700
     55 H27         -0.4290     5.7740     0.2830 hc         1 78R       0.042033
     56 H28         -2.1800     5.8560     0.2350 hc         1 78R       0.042033
     57 H29         -1.3800     4.9750     1.5360 hc         1 78R       0.042033
     58 H30         -2.6970     2.9520     1.0170 h1         1 78R       0.054700
     59 H31         -3.8250     4.8020    -0.4820 hc         1 78R       0.048200
     60 H32         -3.8990     3.5570    -1.7050 hc         1 78R       0.048200
     61 H33         -5.2270     3.6030     1.0380 hc         1 78R       0.042700
     62 H34         -6.0160     3.7370    -0.5230 hc         1 78R       0.042700
     63 H35         -4.8600    -3.3100     1.6270 h1         1 78R       0.058200
     64 H36         -4.9570    -4.5350     0.3560 h1         1 78R       0.058200
     65 H37         -4.7860    -0.8130     0.5000 ha         1 78R       0.119000
     66 H38         -8.0740    -0.2670    -2.1840 ha         1 78R       0.111000
     67 H39         -8.3550    -2.7080    -2.3170 ha         1 78R       0.113000
     68 H40         -6.8280    -4.2100    -1.0860 ha         1 78R       0.112000
     69 H41         -6.8540     1.6670    -1.4900 ha         1 78R       0.169000
     70 H42         -4.8070     1.2140     0.7250 ha         1 78R       0.171000
     71 H43         -2.6600    -0.1920    -0.3410 h1         1 78R       0.039033
     72 H44         -1.1400     0.5000     0.2460 h1         1 78R       0.039033
     73 H45         -2.6420     0.7860     1.1320 h1         1 78R       0.039033
     74 H22          0.6200     3.5870    -1.8880 hn         1 78R       0.319500
     75 H14          2.5060     2.4350    -1.9010 h1         1 78R       0.061700
     76 H15          4.1300     2.8070    -0.1860 hc         1 78R       0.045700
     77 H18          2.5680     5.3140    -0.9150 hc         1 78R       0.039200
     78 H19          4.2780     5.2260    -0.5080 hc         1 78R       0.039200
     79 H20          3.6890     4.4610    -1.9820 hc         1 78R       0.039200
     80 H23          2.6430     2.8670     1.9200 hc         1 78R       0.039200
     81 H24          3.7800     4.2040     1.7550 hc         1 78R       0.039200
     82 H25          2.0770     4.4380     1.3880 hc         1 78R       0.039200
     83 H21          3.4850     1.1630     0.8930 hn         1 78R       0.333500
     84 H7           3.1420    -1.3520    -0.2660 h1         1 78R       0.062700
     85 H11          3.7670    -0.7090     2.6430 hc         1 78R       0.072700
     86 H12          4.0660    -2.2350     1.8280 hc         1 78R       0.072700
     87 H10          5.4040     1.0190     2.5760 ha         1 78R       0.120000
     88 H6           7.5170     1.9240     1.6780 ha         1 78R       0.115000
     89 H13          5.5940    -2.1780    -0.2810 ha         1 78R       0.127000
     90 H8           8.6800     0.7940    -0.1720 ha         1 78R       0.114000
     91 H46          8.6190    -1.0080    -1.6040 ho         1 78R       0.467000
     92 C39         -2.2090     0.6830     0.1310 c3         1 78R       0.145900
@<TRIPOS>BOND
     1     1     2 1   
     2     1     5 1   
     3     1    46 1   
     4     2     4 1   
     5     2    44 1   
     6     3     5 1   
     7     3     6 1   
     8     3    47 1   
     9     3    48 1   
    10     4     6 1   
    11     4    49 1   
    12     4    50 1   
    13     5    13 1   
    14     5    51 1   
    15     6    52 1   
    16     6    53 1   
    17     7     8 1   
    18     7    23 2   
    19     7    27 1   
    20     8     9 1   
    21     8    10 1   
    22     8    54 1   
    23     9    55 1   
    24     9    56 1   
    25     9    57 1   
    26    10    11 1   
    27    10    25 1   
    28    10    58 1   
    29    11    12 1   
    30    11    59 1   
    31    11    60 1   
    32    12    22 1   
    33    12    61 1   
    34    12    62 1   
    35    13    24 2   
    36    13    26 1   
    37    14    15 1   
    38    14    26 1   
    39    14    63 1   
    40    14    64 1   
    41    15    16 ar  
    42    15    20 ar  
    43    16    17 ar  
    44    16    65 1   
    45    17    18 ar  
    46    17    21 1   
    47    18    19 ar  
    48    18    66 1   
    49    19    20 ar  
    50    19    67 1   
    51    20    68 1   
    52    21    22 2   
    53    21    69 1   
    54    22    70 1   
    55    25    92 1   
    56    27    28 1   
    57    27    74 1   
    58    28    29 1   
    59    28    31 1   
    60    28    75 1   
    61    29    30 2   
    62    29    34 1   
    63    31    32 1   
    64    31    33 1   
    65    31    76 1   
    66    32    77 1   
    67    32    78 1   
    68    32    79 1   
    69    33    80 1   
    70    33    81 1   
    71    33    82 1   
    72    34    35 1   
    73    34    83 1   
    74    35    36 1   
    75    35    44 1   
    76    35    84 1   
    77    36    37 1   
    78    36    85 1   
    79    36    86 1   
    80    37    38 ar  
    81    37    40 ar  
    82    38    39 ar  
    83    38    87 1   
    84    39    42 ar  
    85    39    88 1   
    86    40    41 ar  
    87    40    89 1   
    88    41    42 ar  
    89    41    43 1   
    90    42    90 1   
    91    43    91 1   
    92    44    45 2   
    93    71    92 1   
    94    72    92 1   
    95    73    92 1   
@<TRIPOS>SUBSTRUCTURE
     1 78R         1 TEMP              0 ****  ****    0 ROOT
