@<TRIPOS>MOLECULE
78S
   62    61     1     0     0
SMALL
abcg2


@<TRIPOS>ATOM
      1 CAC         -3.5790    -2.7000     1.0940 c3         1 78S      -0.060900
      2 CAW         -4.3640    -2.8490    -0.1770 c2         1 78S      -0.117400
      3 CAD         -4.9260    -4.2230    -0.4010 c3         1 78S      -0.060900
      4 CAJ         -4.5810    -1.8680    -1.0580 c2         1 78S      -0.225200
      5 CAM         -4.0910    -0.4560    -0.9870 c3         1 78S      -0.046200
      6 CAP         -2.9850    -0.1610    -2.0120 c3         1 78S      -0.021200
      7 CAX         -2.4860     1.2580    -1.8940 c2         1 78S      -0.171400
      8 CAE         -3.2170     2.2850    -2.7060 c3         1 78S      -0.035900
      9 CAK         -1.4940     1.5160    -1.0420 c2         1 78S      -0.163200
     10 CAN         -0.8950     2.8310    -0.6620 c3         1 78S      -0.031200
     11 CAQ         -1.3830     3.2500     0.7400 c3         1 78S      -0.046200
     12 CAY         -0.4610     4.2330     1.3990 c2         1 78S      -0.099400
     13 CAF         -0.5150     5.6390     0.8810 c3         1 78S      -0.051900
     14 CAL          0.3950     3.8780     2.3610 c2         1 78S      -0.222200
     15 CAO          0.5320     2.4930     2.9270 c3         1 78S       0.205800
     16 OAU          0.9080     1.5840     1.9140 os         1 78S      -0.445000
     17 CBA          1.0280     0.2580     2.3560 c3         1 78S       0.020300
     18 CAZ         -0.3090    -0.5020     2.5910 c          1 78S       0.710000
     19 OAI         -1.3770     0.0900     2.3800 o          1 78S      -0.728000
     20 OAG         -0.1540    -1.6710     3.0020 o          1 78S      -0.728000
     21 CAR          1.8960    -0.4920     1.3690 c3         1 78S       0.239600
     22 OAV          1.1990    -0.5840     0.1160 os         1 78S      -0.585400
     23 PBB          1.6520    -1.6290    -0.9870 p5         1 78S       1.373200
     24 OAT          0.7790    -1.0540    -2.1900 os         1 78S      -0.599400
     25 CAB          0.8400    -1.6810    -3.4730 c3         1 78S       0.191900
     26 OAH          3.1010    -1.7830    -1.2260 o          1 78S      -0.587000
     27 OAS          1.0250    -3.0460    -0.6030 os         1 78S      -0.599400
     28 CAA         -0.3390    -3.1850    -0.1880 c3         1 78S       0.191900
     29 H1          -4.2350    -2.7980     1.9630 hc         1 78S       0.041533
     30 H2          -2.8410    -3.5030     1.1800 hc         1 78S       0.041533
     31 H3          -3.0430    -1.7570     1.1830 hc         1 78S       0.041533
     32 H4          -5.5840    -4.5180     0.4210 hc         1 78S       0.041533
     33 H5          -5.4980    -4.2870    -1.3270 hc         1 78S       0.041533
     34 H6          -4.1300    -4.9710    -0.4420 hc         1 78S       0.041533
     35 H7          -5.1640    -2.1110    -1.9440 ha         1 78S       0.144000
     36 H8          -4.9320     0.2250    -1.1620 hc         1 78S       0.055200
     37 H9          -3.7040    -0.2170     0.0050 hc         1 78S       0.055200
     38 H10         -2.1590    -0.8570    -1.8420 hc         1 78S       0.033200
     39 H11         -3.3570    -0.3600    -3.0230 hc         1 78S       0.033200
     40 H12         -2.9130     3.3050    -2.4790 hc         1 78S       0.022367
     41 H13         -3.0650     2.1210    -3.7770 hc         1 78S       0.022367
     42 H14         -4.2950     2.2180    -2.5370 hc         1 78S       0.022367
     43 H15         -1.0840     0.6800    -0.4850 ha         1 78S       0.213000
     44 H16          0.1910     2.7100    -0.6240 hc         1 78S       0.037700
     45 H17         -1.1010     3.6150    -1.3940 hc         1 78S       0.037700
     46 H18         -2.3840     3.6860     0.6430 hc         1 78S       0.068200
     47 H19         -1.4820     2.3480     1.3430 hc         1 78S       0.068200
     48 H20         -1.5180     6.0570     1.0040 hc         1 78S       0.027033
     49 H21          0.1910     6.2950     1.3900 hc         1 78S       0.027033
     50 H22         -0.2950     5.6780    -0.1890 hc         1 78S       0.027033
     51 H23          1.0540     4.6360     2.7750 ha         1 78S       0.150000
     52 H24          1.2910     2.5030     3.7230 h1         1 78S       0.026200
     53 H25         -0.4060     2.1780     3.3970 h1         1 78S       0.026200
     54 H26          1.5880     0.2260     3.3070 h1         1 78S       0.019700
     55 H28          2.8440     0.0280     1.2120 h1         1 78S       0.037200
     56 H29          2.1080    -1.4820     1.7740 h1         1 78S       0.037200
     57 H30          1.8540    -1.6720    -3.8720 h1         1 78S       0.042367
     58 H31          0.4800    -2.7100    -3.4320 h1         1 78S       0.042367
     59 H32          0.1930    -1.1100    -4.1330 h1         1 78S       0.042367
     60 H33         -0.5940    -4.2370    -0.2900 h1         1 78S       0.042367
     61 H34         -0.4540    -2.8780     0.8500 h1         1 78S       0.042367
     62 H35         -1.0190    -2.6020    -0.8100 h1         1 78S       0.042367
@<TRIPOS>BOND
     1     1     2 1   
     2     1    29 1   
     3     1    30 1   
     4     1    31 1   
     5     2     3 1   
     6     2     4 2   
     7     3    32 1   
     8     3    33 1   
     9     3    34 1   
    10     4     5 1   
    11     4    35 1   
    12     5     6 1   
    13     5    36 1   
    14     5    37 1   
    15     6     7 1   
    16     6    38 1   
    17     6    39 1   
    18     7     8 1   
    19     7     9 2   
    20     8    40 1   
    21     8    41 1   
    22     8    42 1   
    23     9    10 1   
    24     9    43 1   
    25    10    11 1   
    26    10    44 1   
    27    10    45 1   
    28    11    12 1   
    29    11    46 1   
    30    11    47 1   
    31    12    13 1   
    32    12    14 2   
    33    13    48 1   
    34    13    49 1   
    35    13    50 1   
    36    14    15 1   
    37    14    51 1   
    38    15    16 1   
    39    15    52 1   
    40    15    53 1   
    41    16    17 1   
    42    17    18 1   
    43    17    21 1   
    44    17    54 1   
    45    18    19 1   
    46    18    20 1   
    47    21    22 1   
    48    21    55 1   
    49    21    56 1   
    50    22    23 1   
    51    23    24 1   
    52    23    26 2   
    53    23    27 1   
    54    24    25 1   
    55    25    57 1   
    56    25    58 1   
    57    25    59 1   
    58    27    28 1   
    59    28    60 1   
    60    28    61 1   
    61    28    62 1   
@<TRIPOS>SUBSTRUCTURE
     1 78S         1 TEMP              0 ****  ****    0 ROOT
