@<TRIPOS>MOLECULE
78S
   62    61     1     0     0
SMALL
No Charge or Current Charge


@<TRIPOS>ATOM
      1 CAC         -4.0460    -3.0130     0.6790 c3         1 78S      -0.060900
      2 CAW         -4.9210    -3.0110    -0.5660 c2         1 78S      -0.117400
      3 CAD         -5.5790    -4.3570    -0.8080 c3         1 78S      -0.060900
      4 CAJ         -5.1140    -1.9580    -1.3830 c2         1 78S      -0.225200
      5 CAM         -4.5510    -0.5550    -1.2370 c3         1 78S      -0.046200
      6 CAP         -3.2190    -0.3780    -1.9960 c3         1 78S      -0.021200
      7 CAX         -2.5850     0.9890    -1.7790 c2         1 78S      -0.171400
      8 CAE         -3.2200     2.0840    -2.6270 c3         1 78S      -0.035900
      9 CAK         -1.5510     1.1570    -0.9320 c2         1 78S      -0.163200
     10 CAN         -0.7630     2.4210    -0.6430 c3         1 78S      -0.031200
     11 CAQ         -1.2160     3.1030     0.6650 c3         1 78S      -0.046200
     12 CAY         -0.2380     4.1730     1.1380 c2         1 78S      -0.099400
     13 CAF         -0.4050     5.4990     0.4160 c3         1 78S      -0.051900
     14 CAL          0.6890     3.9830     2.0980 c2         1 78S      -0.222200
     15 CAO          0.9520     2.7110     2.8840 c3         1 78S       0.205800
     16 OAU          1.3050     1.6770     1.9480 os         1 78S      -0.445000
     17 CBA          1.6350     0.3750     2.5210 c3         1 78S       0.020300
     18 CAZ          0.4560    -0.3910     3.2160 c          1 78S       0.710000
     19 OAI         -0.6950     0.0160     3.1160 o          1 78S      -0.728000
     20 OAG          0.7520    -1.3390     3.9340 o          1 78S      -0.728000
     21 CAR          2.2330    -0.5030     1.3950 c3         1 78S       0.239600
     22 OAV          1.2190    -0.7920     0.4220 os         1 78S      -0.585400
     23 PBB          1.5700    -1.7980    -0.7830 p5         1 78S       1.373200
     24 OAT          0.5030    -1.4010    -1.9250 os         1 78S      -0.599400
     25 CAB          0.8420    -0.3780    -2.8680 c3         1 78S       0.191900
     26 OAH          2.9910    -1.8170    -1.2320 o          1 78S      -0.587000
     27 OAS          1.0000    -3.2120    -0.2500 os         1 78S      -0.599400
     28 CAA         -0.3640    -3.3060     0.1870 c3         1 78S       0.191900
     29 H1          -4.6510    -3.1490     1.5830 hc         1 78S       0.041533
     30 H2          -3.3180    -3.8330     0.6440 hc         1 78S       0.041533
     31 H3          -3.4740    -2.0880     0.8020 hc         1 78S       0.041533
     32 H4          -6.2110    -4.6450     0.0400 hc         1 78S       0.041533
     33 H5          -6.2130    -4.3460    -1.7020 hc         1 78S       0.041533
     34 H6          -4.8280    -5.1450    -0.9490 hc         1 78S       0.041533
     35 H7          -5.7620    -2.0680    -2.2540 ha         1 78S       0.144000
     36 H8          -5.2840     0.1710    -1.6100 hc         1 78S       0.055200
     37 H9          -4.3960    -0.3020    -0.1820 hc         1 78S       0.055200
     38 H10         -2.5320    -1.1630    -1.6570 hc         1 78S       0.033200
     39 H11         -3.3780    -0.5630    -3.0660 hc         1 78S       0.033200
     40 H12         -2.7940     3.0740    -2.4370 hc         1 78S       0.022367
     41 H13         -3.0940     1.8740    -3.6960 hc         1 78S       0.022367
     42 H14         -4.2950     2.1650    -2.4310 hc         1 78S       0.022367
     43 H15         -1.1720     0.2980    -0.3730 ha         1 78S       0.213000
     44 H16          0.2990     2.1620    -0.5600 hc         1 78S       0.037700
     45 H17         -0.8250     3.1370    -1.4700 hc         1 78S       0.037700
     46 H18         -2.2210     3.5220     0.5310 hc         1 78S       0.068200
     47 H19         -1.3250     2.3280     1.4320 hc         1 78S       0.068200
     48 H20         -1.4150     5.9010     0.5550 hc         1 78S       0.027033
     49 H21          0.3010     6.2530     0.7850 hc         1 78S       0.027033
     50 H22         -0.2320     5.3900    -0.6620 hc         1 78S       0.027033
     51 H23          1.3530     4.8000     2.3800 ha         1 78S       0.150000
     52 H24          1.7720     2.8810     3.5950 h1         1 78S       0.026200
     53 H25          0.0570     2.4460     3.4600 h1         1 78S       0.026200
     54 H26          2.4190     0.5070     3.2790 h1         1 78S       0.019700
     55 H28          3.0750     0.0310     0.9330 h1         1 78S       0.037200
     56 H29          2.6240    -1.4310     1.8340 h1         1 78S       0.037200
     57 H30          1.2060     0.5240    -2.3590 h1         1 78S       0.042367
     58 H31          1.6200    -0.7260    -3.5600 h1         1 78S       0.042367
     59 H32         -0.0400    -0.1000    -3.4600 h1         1 78S       0.042367
     60 H33         -0.5830    -4.3230     0.5350 h1         1 78S       0.042367
     61 H34         -0.5650    -2.6160     1.0170 h1         1 78S       0.042367
     62 H35         -1.0590    -3.0740    -0.6320 h1         1 78S       0.042367
@<TRIPOS>BOND
     1     1     2 1   
     2     1    29 1   
     3     1    30 1   
     4     1    31 1   
     5     2     3 1   
     6     2     4 2   
     7     3    32 1   
     8     3    33 1   
     9     3    34 1   
    10     4     5 1   
    11     4    35 1   
    12     5     6 1   
    13     5    36 1   
    14     5    37 1   
    15     6     7 1   
    16     6    38 1   
    17     6    39 1   
    18     7     8 1   
    19     7     9 2   
    20     8    40 1   
    21     8    41 1   
    22     8    42 1   
    23     9    10 1   
    24     9    43 1   
    25    10    11 1   
    26    10    44 1   
    27    10    45 1   
    28    11    12 1   
    29    11    46 1   
    30    11    47 1   
    31    12    13 1   
    32    12    14 2   
    33    13    48 1   
    34    13    49 1   
    35    13    50 1   
    36    14    15 1   
    37    14    51 1   
    38    15    16 1   
    39    15    52 1   
    40    15    53 1   
    41    16    17 1   
    42    17    18 1   
    43    17    21 1   
    44    17    54 1   
    45    18    19 1   
    46    18    20 1   
    47    21    22 1   
    48    21    55 1   
    49    21    56 1   
    50    22    23 1   
    51    23    24 1   
    52    23    26 2   
    53    23    27 1   
    54    24    25 1   
    55    25    57 1   
    56    25    58 1   
    57    25    59 1   
    58    27    28 1   
    59    28    60 1   
    60    28    61 1   
    61    28    62 1   
@<TRIPOS>SUBSTRUCTURE
     1 78S         1 TEMP              0 ****  ****    0 ROOT
