@<TRIPOS>MOLECULE
78T
    5     4     1     0     0
SMALL
abcg2


@<TRIPOS>ATOM
      1 P1           0.0190    -0.0110    -0.1790 p5         1 78T       1.199900
      2 O1           0.4200     1.3960     0.2720 o          1 78T      -0.953500
      3 O2           1.0540    -1.0910     0.1500 o          1 78T      -0.953500
      4 O3          -1.4200    -0.3950     0.1770 o          1 78T      -0.953500
      5 H4           0.0240     0.0630    -1.6450 hp         1 78T      -0.339400
@<TRIPOS>BOND
     1     1     2 1   
     2     1     3 1   
     3     1     4 1   
     4     1     5 1   
@<TRIPOS>SUBSTRUCTURE
     1 78T         1 TEMP              0 ****  ****    0 ROOT
