@<TRIPOS>MOLECULE
78T
    5     4     1     0     0
SMALL
No Charge or Current Charge


@<TRIPOS>ATOM
      1 P1           0.0190    -0.0080    -0.2330 p5         1 78T       1.199900
      2 O1           0.4020     1.3310     0.2890 o          1 78T      -0.953500
      3 O2           1.0070    -1.0440     0.1720 o          1 78T      -0.953500
      4 O3          -1.3550    -0.3800     0.1980 o          1 78T      -0.953500
      5 H4           0.0240     0.0630    -1.6510 hp         1 78T      -0.339400
@<TRIPOS>BOND
     1     1     2 1   
     2     1     3 1   
     3     1     4 1   
     4     1     5 1   
@<TRIPOS>SUBSTRUCTURE
     1 78T         1 TEMP              0 ****  ****    0 ROOT
