@<TRIPOS>MOLECULE
78U
   29    30     1     0     0
SMALL
No Charge or Current Charge


@<TRIPOS>ATOM
      1 OXT         -4.3370    -0.0730    -0.5580 o          1 78U      -0.734000
      2 C           -3.3790     0.5910    -0.1830 c          1 78U       0.728000
      3 O           -3.5000     1.6640     0.3980 o          1 78U      -0.734000
      4 CA          -1.9210     0.0990    -0.5700 c3         1 78U       0.030500
      5 N           -1.1430     1.0090    -1.4890 n8         1 78U      -0.979200
      6 CB          -1.0730    -0.2640     0.6930 c3         1 78U      -0.026500
      7 CAG         -1.8000    -1.2820     1.6080 c3         1 78U      -0.068100
      8 CG           0.3160    -0.7550     0.3290 cc         1 78U      -0.097400
      9 CD2          1.5000     0.0470     0.1570 ca         1 78U      -0.099800
     10 CE3          1.6970     1.4280     0.3150 ca         1 78U      -0.046000
     11 CZ3          2.9900     1.9440     0.0820 ca         1 78U      -0.162000
     12 CH2          4.0460     1.0820    -0.2940 ca         1 78U      -0.102000
     13 CZ2          3.8170    -0.3020    -0.4360 ca         1 78U      -0.144000
     14 CE2          2.5230    -0.7870    -0.2000 ca         1 78U      -0.052200
     15 NE1          2.0870    -2.0950    -0.2720 na         1 78U      -0.235700
     16 CD1          0.7110    -2.0650     0.0600 cd         1 78U      -0.180100
     17 H2          -2.0560    -0.8400    -1.1250 h1         1 78U       0.042700
     18 H3          -1.1220     1.9470    -1.0740 hn         1 78U       0.375000
     19 H4          -0.1610     0.7090    -1.4610 hn         1 78U       0.375000
     20 H6          -0.9610     0.6520     1.2860 hc         1 78U       0.063700
     21 H7          -1.1640    -1.5540     2.4590 hc         1 78U       0.027033
     22 H8          -2.7290    -0.8610     2.0100 hc         1 78U       0.027033
     23 H9          -2.0490    -2.1980     1.0580 hc         1 78U       0.027033
     24 H10          0.8820     2.0840     0.6110 ha         1 78U       0.127000
     25 H11          3.1740     3.0100     0.1950 ha         1 78U       0.101000
     26 H12          5.0400     1.4880    -0.4700 ha         1 78U       0.094000
     27 H13          4.6240    -0.9740    -0.7200 ha         1 78U       0.098000
     28 H14          2.6420    -2.9100    -0.5170 hn         1 78U       0.335000
     29 H15          0.1110    -2.9710     0.0700 h4         1 78U       0.211000
@<TRIPOS>BOND
     1     1     2 1   
     2     2     3 1   
     3     2     4 1   
     4     4     5 1   
     5     4     6 1   
     6     4    17 1   
     7     5    18 1   
     8     5    19 1   
     9     6     7 1   
    10     6     8 1   
    11     6    20 1   
    12     7    21 1   
    13     7    22 1   
    14     7    23 1   
    15     8     9 1   
    16     8    16 2   
    17     9    10 ar  
    18     9    14 ar  
    19    10    11 ar  
    20    10    24 1   
    21    11    12 ar  
    22    11    25 1   
    23    12    13 ar  
    24    12    26 1   
    25    13    14 ar  
    26    13    27 1   
    27    14    15 1   
    28    15    16 1   
    29    15    28 1   
    30    16    29 1   
@<TRIPOS>SUBSTRUCTURE
     1 78U         1 TEMP              0 ****  ****    0 ROOT
