@<TRIPOS>MOLECULE
78U
   29    30     1     0     0
SMALL
abcg2


@<TRIPOS>ATOM
      1 OXT         -4.2880    -0.1300    -0.4280 o          1 78U      -0.734000
      2 C           -3.2940     0.5830    -0.1860 c          1 78U       0.728000
      3 O           -3.3030     1.7100     0.3540 o          1 78U      -0.734000
      4 CA          -1.9030     0.0440    -0.5770 c3         1 78U       0.030500
      5 N           -1.2820     1.0120    -1.4720 n8         1 78U      -0.979200
      6 CB          -1.0770    -0.2730     0.6940 c3         1 78U      -0.026500
      7 CAG         -1.7970    -1.2870     1.5810 c3         1 78U      -0.068100
      8 CG           0.3050    -0.7350     0.3400 cc         1 78U      -0.097400
      9 CD2          1.4760     0.0800     0.1830 ca         1 78U      -0.099800
     10 CE3          1.7320     1.4500     0.3280 ca         1 78U      -0.046000
     11 CZ3          3.0100     1.9240     0.1050 ca         1 78U      -0.162000
     12 CH2          4.0500     1.0550    -0.2680 ca         1 78U      -0.102000
     13 CZ2          3.8300    -0.3010    -0.4210 ca         1 78U      -0.144000
     14 CE2          2.5390    -0.7740    -0.1910 ca         1 78U      -0.052200
     15 NE1          2.0340    -2.0380    -0.2600 na         1 78U      -0.235700
     16 CD1          0.7040    -2.0130     0.0580 cd         1 78U      -0.180100
     17 H2          -2.0230    -0.8940    -1.1310 h1         1 78U       0.042700
     18 H3          -1.1770     1.8870    -0.9720 hn         1 78U       0.375000
     19 H4          -0.3460     0.7070    -1.7100 hn         1 78U       0.375000
     20 H6          -0.9900     0.6660     1.2530 hc         1 78U       0.063700
     21 H7          -1.2030    -1.5320     2.4620 hc         1 78U       0.027033
     22 H8          -2.7570    -0.9040     1.9280 hc         1 78U       0.027033
     23 H9          -1.9940    -2.2170     1.0440 hc         1 78U       0.027033
     24 H10          0.9400     2.1330     0.6120 ha         1 78U       0.127000
     25 H11          3.2170     2.9800     0.2150 ha         1 78U       0.101000
     26 H12          5.0410     1.4540    -0.4410 ha         1 78U       0.094000
     27 H13          4.6330    -0.9690    -0.7080 ha         1 78U       0.098000
     28 H14          2.5550    -2.8660    -0.4920 hn         1 78U       0.335000
     29 H15          0.1330    -2.9280     0.0640 h4         1 78U       0.211000
@<TRIPOS>BOND
     1     1     2 1   
     2     2     3 1   
     3     2     4 1   
     4     4     5 1   
     5     4     6 1   
     6     4    17 1   
     7     5    18 1   
     8     5    19 1   
     9     6     7 1   
    10     6     8 1   
    11     6    20 1   
    12     7    21 1   
    13     7    22 1   
    14     7    23 1   
    15     8     9 1   
    16     8    16 2   
    17     9    10 ar  
    18     9    14 ar  
    19    10    11 ar  
    20    10    24 1   
    21    11    12 ar  
    22    11    25 1   
    23    12    13 ar  
    24    12    26 1   
    25    13    14 ar  
    26    13    27 1   
    27    14    15 1   
    28    15    16 1   
    29    15    28 1   
    30    16    29 1   
@<TRIPOS>SUBSTRUCTURE
     1 78U         1 TEMP              0 ****  ****    0 ROOT
