@<TRIPOS>MOLECULE
78V
   57    60     1     0     0
SMALL
No Charge or Current Charge


@<TRIPOS>ATOM
      1 N            7.5860    -1.0580    -0.0640 n          1 78V      -0.355000
      2 N1           5.3530    -0.4360    -0.6140 nc         1 78V      -0.764100
      3 C6           2.8240     0.7010     0.0410 c3         1 78V       0.223800
      4 C5           6.5480    -0.9710    -1.0090 c          1 78V       0.711400
      5 C4           5.1790    -0.0250     0.6090 cd         1 78V       0.775500
      6 N4          -4.3050    -0.2250    -0.2000 na         1 78V      -0.310300
      7 N3           0.4450     1.5140    -0.1010 n7         1 78V      -0.850400
      8 C2           7.3970    -0.6340     1.2460 cc         1 78V       0.016600
      9 O2          -2.3100     0.8610    -0.8690 os         1 78V      -0.447000
     10 C           10.1430     0.4390    -0.4310 c3         1 78V       0.133900
     11 O            9.6460    -0.6610    -1.2140 os         1 78V      -0.427000
     12 O1           6.6780    -1.3630    -2.1570 o          1 78V      -0.529000
     13 C1           8.8730    -1.6410    -0.4920 c3         1 78V       0.322000
     14 C3           6.1820    -0.1030     1.6040 cd         1 78V      -0.479600
     15 N2           3.9810     0.4930     0.9390 nu         1 78V      -0.881400
     16 C7           1.6070     1.3070     0.7950 c3         1 78V       0.139800
     17 C8          -0.7370     2.1430     0.5330 c3         1 78V       0.160800
     18 C9          -1.9570     2.1970    -0.4240 c5         1 78V       0.163300
     19 C12         -3.2690     2.7520     0.2090 c5         1 78V       0.090300
     20 O4          -3.2940     4.1870     0.3220 oh         1 78V      -0.706000
     21 C11         -4.2930     2.2480    -0.8440 c5         1 78V       0.103300
     22 O3          -4.2500     3.0890    -2.0110 oh         1 78V      -0.700000
     23 C10         -3.7440     0.7960    -1.0850 c5         1 78V       0.321300
     24 C15         -5.5610    -0.7710    -0.2320 ca         1 78V       0.121500
     25 N6          -6.5970    -0.5440    -1.0630 nb         1 78V      -0.220000
     26 C16         -7.7200    -1.2630    -0.8210 ca         1 78V       0.183900
     27 N7          -7.9000    -2.1740     0.1640 nb         1 78V      -0.303000
     28 C17         -6.8520    -2.3740     0.9770 ca         1 78V       0.452900
     29 N8          -7.0290    -3.2920     1.9650 nv         1 78V      -1.065900
     30 C14         -5.6390    -1.6730     0.7990 ca         1 78V      -0.099600
     31 N5          -4.4570    -1.7540     1.5250 nc         1 78V      -0.556100
     32 C13         -3.6750    -0.8620     0.8860 cd         1 78V       0.410700
     33 H8           3.1030     1.3780    -0.7780 h1         1 78V       0.072700
     34 H9           2.5220    -0.2550    -0.4080 h1         1 78V       0.072700
     35 H12          0.1410     0.6010    -0.4660 hn         1 78V       0.428000
     36 H5           8.2650    -0.7620     1.8890 h4         1 78V       0.195000
     37 H1          10.7690     1.0930    -1.0500 h1         1 78V       0.033700
     38 H            9.3190     1.0430    -0.0300 h1         1 78V       0.033700
     39 H2          10.7520     0.0780     0.4080 h1         1 78V       0.033700
     40 H4           9.4080    -1.9970     0.3960 h2         1 78V       0.066700
     41 H3           8.6540    -2.5090    -1.1250 h2         1 78V       0.066700
     42 H6           5.9970     0.2440     2.6130 ha         1 78V       0.200000
     43 H7           3.9270     0.8190     1.8980 hn         1 78V       0.491000
     44 H11          1.3310     0.6340     1.6190 h1         1 78V       0.031200
     45 H10          1.9130     2.2650     1.2370 h1         1 78V       0.031200
     46 H13         -1.0310     1.5780     1.4280 h1         1 78V       0.037200
     47 H14         -0.4970     3.1660     0.8540 h1         1 78V       0.037200
     48 H15         -1.6740     2.7900    -1.3050 h1         1 78V       0.097700
     49 H19         -3.4490     2.2810     1.1870 h1         1 78V       0.054700
     50 H20         -3.8100     4.4150     1.1330 ho         1 78V       0.518000
     51 H17         -5.3110     2.2200    -0.4290 h1         1 78V       0.079700
     52 H18         -3.9600     3.9670    -1.6580 ho         1 78V       0.525000
     53 H16         -3.9660     0.4670    -2.1090 h2         1 78V       0.127700
     54 H22         -8.5630    -1.0890    -1.4870 h5         1 78V       0.047100
     55 H23         -7.7850    -3.9620     1.8610 hn         1 78V       0.507500
     56 H24         -6.1930    -3.6180     2.4450 hn         1 78V       0.507500
     57 H21         -2.6520    -0.6270     1.1570 h5         1 78V       0.068800
@<TRIPOS>BOND
     1     1     4 1   
     2     1     8 1   
     3     1    13 1   
     4     2     4 1   
     5     2     5 2   
     6     3    15 1   
     7     3    16 1   
     8     3    33 1   
     9     3    34 1   
    10     4    12 2   
    11     5    14 1   
    12     5    15 1   
    13     6    23 1   
    14     6    24 1   
    15     6    32 1   
    16     7    16 1   
    17     7    17 1   
    18     7    35 1   
    19     8    14 2   
    20     8    36 1   
    21     9    18 1   
    22     9    23 1   
    23    10    11 1   
    24    10    37 1   
    25    10    38 1   
    26    10    39 1   
    27    11    13 1   
    28    13    40 1   
    29    13    41 1   
    30    14    42 1   
    31    15    43 1   
    32    16    44 1   
    33    16    45 1   
    34    17    18 1   
    35    17    46 1   
    36    17    47 1   
    37    18    19 1   
    38    18    48 1   
    39    19    20 1   
    40    19    21 1   
    41    19    49 1   
    42    20    50 1   
    43    21    22 1   
    44    21    23 1   
    45    21    51 1   
    46    22    52 1   
    47    23    53 1   
    48    24    25 ar  
    49    24    30 ar  
    50    25    26 ar  
    51    26    27 ar  
    52    26    54 1   
    53    27    28 ar  
    54    28    29 1   
    55    28    30 ar  
    56    29    55 1   
    57    29    56 1   
    58    30    31 1   
    59    31    32 2   
    60    32    57 1   
@<TRIPOS>SUBSTRUCTURE
     1 78V         1 TEMP              0 ****  ****    0 ROOT
