@<TRIPOS>MOLECULE
78V
   57    60     1     0     0
SMALL
abcg2


@<TRIPOS>ATOM
      1 N            7.3780    -1.0840     0.0910 n          1 78V      -0.355000
      2 N1           5.1200    -0.5700    -0.3830 nc         1 78V      -0.764100
      3 C6           2.7400     0.7120     0.2040 c3         1 78V       0.223800
      4 C5           6.2610    -1.1890    -0.7550 c          1 78V       0.711400
      5 C4           5.0500     0.1020     0.7490 cd         1 78V       0.775500
      6 N4          -4.1320    -0.1790    -0.2340 na         1 78V      -0.310300
      7 N3           0.4170     1.3960     0.0380 n7         1 78V      -0.850400
      8 C2           7.3010    -0.3900     1.2530 cc         1 78V       0.016600
      9 O2          -2.2490     0.9730    -0.9580 os         1 78V      -0.447000
     10 C            9.7920     0.2640    -0.9160 c3         1 78V       0.133900
     11 O            9.2820    -0.9870    -1.3230 os         1 78V      -0.427000
     12 O1           6.3600    -1.8300    -1.7910 o          1 78V      -0.529000
     13 C1           8.6360    -1.6910    -0.3180 c3         1 78V       0.322000
     14 C3           6.1640     0.2170     1.6400 cd         1 78V      -0.479600
     15 N2           3.8960     0.6890     1.0710 nu         1 78V      -0.881400
     16 C7           1.5510     1.3120     0.9350 c3         1 78V       0.139800
     17 C8          -0.7600     1.9490     0.6730 c3         1 78V       0.160800
     18 C9          -1.8650     2.1980    -0.3280 c5         1 78V       0.163300
     19 C12         -3.1530     2.7380     0.2850 c5         1 78V       0.090300
     20 O4          -3.0880     4.1310     0.4000 oh         1 78V      -0.706000
     21 C11         -4.2080     2.2460    -0.7120 c5         1 78V       0.103300
     22 O3          -4.2240     3.0440    -1.8630 oh         1 78V      -0.700000
     23 C10         -3.6330     0.8840    -1.0990 c5         1 78V       0.321300
     24 C15         -5.3720    -0.7390    -0.3260 ca         1 78V       0.121500
     25 N6          -6.3520    -0.4270    -1.1730 nb         1 78V      -0.220000
     26 C16         -7.4200    -1.1810    -0.9790 ca         1 78V       0.183900
     27 N7          -7.5970    -2.1490    -0.0830 nb         1 78V      -0.303000
     28 C17         -6.6020    -2.4500     0.7590 ca         1 78V       0.452900
     29 N8          -6.7780    -3.4210     1.6570 nv         1 78V      -1.065900
     30 C14         -5.4060    -1.7150     0.6570 ca         1 78V      -0.099600
     31 N5          -4.2180    -1.7610     1.3360 nc         1 78V      -0.556100
     32 C13         -3.4890    -0.8380     0.7770 cd         1 78V       0.410700
     33 H8           2.9470     1.2930    -0.7000 h1         1 78V       0.072700
     34 H9           2.5070    -0.3060    -0.1160 h1         1 78V       0.072700
     35 H12          0.2000     0.4660    -0.3010 hn         1 78V       0.428000
     36 H5           8.2010    -0.3570     1.8540 h4         1 78V       0.195000
     37 H1          10.4010     0.6500    -1.7320 h1         1 78V       0.033700
     38 H            9.0020     0.9930    -0.7090 h1         1 78V       0.033700
     39 H2          10.4220     0.1760    -0.0240 h1         1 78V       0.033700
     40 H4           9.2530    -1.7710     0.5830 h2         1 78V       0.066700
     41 H3           8.4390    -2.6910    -0.6980 h2         1 78V       0.066700
     42 H6           6.1090     0.7660     2.5680 ha         1 78V       0.200000
     43 H7           3.8810     1.2630     1.8990 hn         1 78V       0.491000
     44 H11          1.3420     0.7230     1.8410 h1         1 78V       0.031200
     45 H10          1.8020     2.3240     1.2680 h1         1 78V       0.031200
     46 H13         -1.1380     1.3290     1.5030 h1         1 78V       0.037200
     47 H14         -0.4980     2.9170     1.1100 h1         1 78V       0.037200
     48 H15         -1.4980     2.8900    -1.0960 h1         1 78V       0.097700
     49 H19         -3.3310     2.2640     1.2600 h1         1 78V       0.054700
     50 H20         -3.7470     4.4210     1.0390 ho         1 78V       0.518000
     51 H17         -5.2050     2.1570    -0.2640 h1         1 78V       0.079700
     52 H18         -4.1020     3.9610    -1.5880 ho         1 78V       0.525000
     53 H16         -3.9020     0.6160    -2.1240 h2         1 78V       0.127700
     54 H22         -8.2650    -0.9890    -1.6300 h5         1 78V       0.047100
     55 H23         -7.6420    -3.9330     1.6900 hn         1 78V       0.507500
     56 H24         -6.0410    -3.6870     2.2850 hn         1 78V       0.507500
     57 H21         -2.4740    -0.6060     1.0580 h5         1 78V       0.068800
@<TRIPOS>BOND
     1     1     4 1   
     2     1     8 1   
     3     1    13 1   
     4     2     4 1   
     5     2     5 2   
     6     3    15 1   
     7     3    16 1   
     8     3    33 1   
     9     3    34 1   
    10     4    12 2   
    11     5    14 1   
    12     5    15 1   
    13     6    23 1   
    14     6    24 1   
    15     6    32 1   
    16     7    16 1   
    17     7    17 1   
    18     7    35 1   
    19     8    14 2   
    20     8    36 1   
    21     9    18 1   
    22     9    23 1   
    23    10    11 1   
    24    10    37 1   
    25    10    38 1   
    26    10    39 1   
    27    11    13 1   
    28    13    40 1   
    29    13    41 1   
    30    14    42 1   
    31    15    43 1   
    32    16    44 1   
    33    16    45 1   
    34    17    18 1   
    35    17    46 1   
    36    17    47 1   
    37    18    19 1   
    38    18    48 1   
    39    19    20 1   
    40    19    21 1   
    41    19    49 1   
    42    20    50 1   
    43    21    22 1   
    44    21    23 1   
    45    21    51 1   
    46    22    52 1   
    47    23    53 1   
    48    24    25 ar  
    49    24    30 ar  
    50    25    26 ar  
    51    26    27 ar  
    52    26    54 1   
    53    27    28 ar  
    54    28    29 1   
    55    28    30 ar  
    56    29    55 1   
    57    29    56 1   
    58    30    31 1   
    59    31    32 2   
    60    32    57 1   
@<TRIPOS>SUBSTRUCTURE
     1 78V         1 TEMP              0 ****  ****    0 ROOT
