@<TRIPOS>MOLECULE
78W
   38    39     1     0     0
SMALL
bcc


@<TRIPOS>ATOM
      1 C1          -0.6110     2.9480     1.0810 ca         1 78W      -0.139000
      2 C3          -0.9640     2.0350    -1.1150 ca         1 78W      -0.139000
      3 C4          -2.2240     2.6130    -1.1550 ca         1 78W      -0.109000
      4 C5          -2.6710     3.3480    -0.0700 ca         1 78W       0.014400
      5 C6          -1.8710     3.5210     1.0500 ca         1 78W      -0.109000
      6 C9           1.3780     0.4220     0.0130 c2         1 78W       0.528800
      7 C13         -1.0680    -3.4060     1.1350 ca         1 78W       0.189900
      8 C14         -2.2260    -4.1350     1.2970 ca         1 78W      -0.173000
      9 S21          3.0230    -0.1930    -0.0310 ss         1 78W      -0.051300
     10 C2          -0.1450     2.1910     0.0060 ca         1 78W       0.149400
     11 N10          0.3640    -0.5290     0.0610 ns         1 78W      -0.517400
     12 C22          3.8980     1.3830     0.0930 c3         1 78W      -0.158300
     13 N8           1.1490     1.6690     0.0440 ne         1 78W      -0.677100
     14 CL1         -4.2480     4.0690    -0.1150 cl         1 78W      -0.111400
     15 C11          0.4680    -1.8780    -0.0900 c          1 78W       0.702700
     16 O20          1.5070    -2.4620    -0.2890 o          1 78W      -0.513100
     17 C12         -0.8390    -2.5980     0.0330 ca         1 78W      -0.204600
     18 C17         -1.8290    -2.5440    -0.9420 ca         1 78W       0.076400
     19 CL2         -1.5780    -1.5700    -2.3480 cl         1 78W      -0.085400
     20 C16         -3.0040    -3.2670    -0.8180 ca         1 78W      -0.142000
     21 C15         -3.1920    -4.0580     0.3050 ca         1 78W      -0.074000
     22 H1           0.0210     3.0850     1.9490 ha         1 78W       0.145000
     23 H2          -0.6100     1.4760    -1.9720 ha         1 78W       0.145000
     24 H3          -2.8470     2.4870    -2.0300 ha         1 78W       0.148500
     25 H4          -2.2230     4.1000     1.8930 ha         1 78W       0.148500
     26 H5          -2.3690    -4.7460     2.1780 ha         1 78W       0.162000
     27 H6          -0.5610    -0.1620     0.2450 hn         1 78W       0.332500
     28 H7           3.6580     2.0360    -0.7490 h1         1 78W       0.099200
     29 H8           3.6090     1.9210     0.9990 h1         1 78W       0.099200
     30 H10         -3.7590    -3.2150    -1.5890 ha         1 78W       0.158000
     31 H11         -4.1080    -4.6240     0.4080 ha         1 78W       0.146000
     32 C7           5.3800     1.1050     0.1020 c          1 78W       0.583100
     33 C8           6.2520     2.3010     0.3370 c3         1 78W      -0.196100
     34 O1           5.8110    -0.0140    -0.0570 o          1 78W      -0.501100
     35 H9           6.1990     2.5730     1.3930 hc         1 78W       0.064700
     36 H12          7.2890     2.0900     0.0830 hc         1 78W       0.064700
     37 H13          5.9020     3.1640    -0.2290 hc         1 78W       0.064700
     38 F1          -0.1240    -3.4530     2.0800 f          1 78W      -0.121900
@<TRIPOS>BOND
     1     1     5 ar  
     2     1    10 ar  
     3     1    22 1   
     4     2     3 ar  
     5     2    10 ar  
     6     2    23 1   
     7     3     4 ar  
     8     3    24 1   
     9     4     5 ar  
    10     4    14 1   
    11     5    25 1   
    12     6     9 1   
    13     6    11 1   
    14     6    13 2   
    15     7     8 ar  
    16     7    17 ar  
    17     7    38 1   
    18     8    21 ar  
    19     8    26 1   
    20     9    12 1   
    21    10    13 1   
    22    11    15 1   
    23    11    27 1   
    24    12    28 1   
    25    12    29 1   
    26    12    32 1   
    27    15    16 2   
    28    15    17 1   
    29    17    18 ar  
    30    18    19 1   
    31    18    20 ar  
    32    20    21 ar  
    33    20    30 1   
    34    21    31 1   
    35    32    33 1   
    36    32    34 2   
    37    33    35 1   
    38    33    36 1   
    39    33    37 1   
@<TRIPOS>SUBSTRUCTURE
     1 78W         1 TEMP              0 ****  ****    0 ROOT
