@<TRIPOS>MOLECULE
78W
   38    39     1     0     0
SMALL
No Charge or Current Charge


@<TRIPOS>ATOM
      1 C1          -0.7010     2.7630     1.2970 ca         1 78W      -0.121000
      2 C3          -0.9440     2.2060    -1.0590 ca         1 78W      -0.121000
      3 C4          -2.2550     2.7180    -1.0460 ca         1 78W      -0.091000
      4 C5          -2.7860     3.2520     0.1400 ca         1 78W       0.106000
      5 C6          -2.0110     3.2770     1.3120 ca         1 78W      -0.091000
      6 C9           1.3830     0.4250     0.0950 c2         1 78W       0.528800
      7 C13         -1.4530    -3.3680     1.3710 ca         1 78W       0.225000
      8 C14         -2.6160    -4.1280     1.1770 ca         1 78W      -0.155000
      9 S21          3.0730    -0.1660    -0.0740 ss         1 78W      -0.099200
     10 C2          -0.1670     2.2230     0.1150 ca         1 78W       0.149400
     11 N10          0.3820    -0.5320     0.0190 ns         1 78W      -0.450400
     12 C22          4.0770     1.3960    -0.0190 c3         1 78W      -0.110400
     13 N8           1.1380     1.7000     0.1100 ne         1 78W      -0.677100
     14 Cl1         -4.4240     3.8920     0.1570 cl         1 78W      -0.203000
     15 C11          0.3320    -1.7710     0.5990 c          1 78W       0.635700
     16 O20          1.2440    -2.2020     1.2890 o          1 78W      -0.513100
     17 C12         -0.9140    -2.5750     0.3310 ca         1 78W      -0.204600
     18 C17         -1.5760    -2.5840    -0.9270 ca         1 78W       0.168000
     19 Cl2         -0.9690    -1.7220    -2.3440 cl         1 78W      -0.177000
     20 C16         -2.7400    -3.3510    -1.1120 ca         1 78W      -0.124000
     21 C15         -3.2650    -4.1210    -0.0650 ca         1 78W      -0.056000
     22 H1          -0.1010     2.7810     2.2040 ha         1 78W       0.127000
     23 H2          -0.5320     1.8000    -1.9790 ha         1 78W       0.127000
     24 H3          -2.8550     2.7040    -1.9520 ha         1 78W       0.130500
     25 H4          -2.4240     3.6920     2.2270 ha         1 78W       0.130500
     26 H5          -3.0160    -4.7190     1.9970 ha         1 78W       0.144000
     27 H6          -0.4570    -0.2470    -0.4600 hn         1 78W       0.332500
     28 H7           3.7740     2.0530    -0.8430 h1         1 78W       0.099200
     29 H8           3.8880     1.9160     0.9270 h1         1 78W       0.099200
     30 H10         -3.2320    -3.3550    -2.0810 ha         1 78W       0.140000
     31 H11         -4.1660    -4.7120    -0.2170 ha         1 78W       0.128000
     32 C7           5.5860     1.1540    -0.1360 c          1 78W       0.583100
     33 C8           6.4650     2.4000    -0.0650 c3         1 78W      -0.196100
     34 O1           6.0740     0.0400    -0.2790 o          1 78W      -0.501100
     35 H9           6.2440     2.9380     0.8640 hc         1 78W       0.064700
     36 H12          7.5330     2.1720    -0.1570 hc         1 78W       0.064700
     37 H13          6.1350     3.1130    -0.8290 hc         1 78W       0.064700
     38 F1          -0.8860    -3.3820     2.5990 f          1 78W      -0.157000
@<TRIPOS>BOND
     1     1     5 ar  
     2     1    10 ar  
     3     1    22 1   
     4     2     3 ar  
     5     2    10 ar  
     6     2    23 1   
     7     3     4 ar  
     8     3    24 1   
     9     4     5 ar  
    10     4    14 1   
    11     5    25 1   
    12     6     9 1   
    13     6    11 1   
    14     6    13 2   
    15     7     8 ar  
    16     7    17 ar  
    17     7    38 1   
    18     8    21 ar  
    19     8    26 1   
    20     9    12 1   
    21    10    13 1   
    22    11    15 1   
    23    11    27 1   
    24    12    28 1   
    25    12    29 1   
    26    12    32 1   
    27    15    16 2   
    28    15    17 1   
    29    17    18 ar  
    30    18    19 1   
    31    18    20 ar  
    32    20    21 ar  
    33    20    30 1   
    34    21    31 1   
    35    32    33 1   
    36    32    34 2   
    37    33    35 1   
    38    33    36 1   
    39    33    37 1   
@<TRIPOS>SUBSTRUCTURE
     1 78W         1 TEMP              0 ****  ****    0 ROOT
