@<TRIPOS>MOLECULE
78X
   95    98     1     0     0
SMALL
bcc


@<TRIPOS>ATOM
      1 N1           1.4160     2.7280    -0.4510 n          1 78X      -0.359200
      2 N2           0.2490     3.2010    -1.0410 n7         1 78X      -0.508200
      3 C5          -0.8240     3.5900     1.1780 c6         1 78X      -0.096400
      4 C6           0.6100     4.0520     1.4370 c6         1 78X      -0.101400
      5 C7           1.6310     3.0270     0.9740 c6         1 78X       0.082000
      6 C8          -0.8870     2.8810    -0.1970 c6         1 78X       0.075500
      7 C23          0.5480    -3.9430     0.9110 c          1 78X       0.669100
      8 C24         -0.8450    -3.9850     1.5590 c3         1 78X      -0.151700
      9 C25         -0.9350    -5.1610     2.5260 c3         1 78X      -0.078100
     10 C26         -2.0320    -3.9810     0.5710 c3         1 78X       0.157100
     11 C27         -3.3630    -4.0070     1.3330 c3         1 78X      -0.089400
     12 C28         -4.6100    -3.6140     0.5250 c3         1 78X      -0.035200
     13 C29         -2.1720     3.1610    -0.9440 c          1 78X       0.651100
     14 C30         -4.5500     3.1290    -0.7000 c3         1 78X       0.205400
     15 C31         -5.4690     2.2350     0.1040 ca         1 78X      -0.089300
     16 C32         -5.2310     0.8640     0.1220 ca         1 78X      -0.095000
     17 C33         -6.0540    -0.0150     0.8280 ca         1 78X      -0.046800
     18 C34         -7.1480     0.5180     1.5160 ca         1 78X      -0.115000
     19 C35         -7.3970     1.8790     1.5030 ca         1 78X      -0.133000
     20 C36         -6.5610     2.7390     0.8050 ca         1 78X      -0.113000
     21 C37         -5.8270    -1.4640     0.8910 ce         1 78X      -0.126200
     22 C38         -4.7950    -2.1350     0.3770 c2         1 78X      -0.144200
     23 C40         -4.8810     4.6080    -0.6460 c3         1 78X      -0.116100
     24 O44          1.4230    -4.7420     1.2100 o          1 78X      -0.615100
     25 O45         -2.2350     3.5580    -2.0770 o          1 78X      -0.515000
     26 O46         -1.9520    -2.8320    -0.2570 os         1 78X      -0.423600
     27 O47         -3.2210     2.9020    -0.1750 os         1 78X      -0.428900
     28 N3           3.1920    -0.3110    -0.5570 ns         1 78X      -0.557900
     29 C10          3.2910     1.1260    -0.4470 c3         1 78X       0.041700
     30 C11          4.5620     1.6270    -1.1450 c3         1 78X      -0.049100
     31 C12          5.8110     1.0340    -0.5540 ca         1 78X      -0.047300
     32 C17          6.4660    -0.0170    -1.1890 ca         1 78X      -0.173000
     33 C16          7.5970    -0.5800    -0.6080 ca         1 78X      -0.087000
     34 C13          6.3020     1.5130     0.6570 ca         1 78X      -0.222000
     35 C14          7.4350     0.9500     1.2340 ca         1 78X       0.145100
     36 C15          8.0860    -0.1080     0.5970 ca         1 78X      -0.159000
     37 O42          7.9460     1.3870     2.4010 oh         1 78X      -0.492100
     38 C9           2.0760     1.7640    -1.1350 c          1 78X       0.689100
     39 O41          1.8000     1.4400    -2.2740 o          1 78X      -0.555100
     40 N4           0.7550    -2.9220     0.0590 ns         1 78X      -0.557900
     41 C19          2.0490    -2.4680    -0.3760 c3         1 78X       0.044700
     42 C18          2.0780    -0.9500    -0.1740 c          1 78X       0.653100
     43 O43          1.1270    -0.3440     0.3000 o          1 78X      -0.621100
     44 C20          2.3940    -2.8710    -1.8260 c3         1 78X      -0.060700
     45 C21          2.3500    -4.3840    -1.9930 c3         1 78X      -0.093600
     46 C22          1.5040    -2.1820    -2.8530 c3         1 78X      -0.093600
     47 H2           0.3280     4.2010    -1.1930 hn         1 78X       0.373800
     48 H10         -1.1520     2.9040     1.9590 hc         1 78X       0.061700
     49 H11         -1.4900     4.4540     1.2160 hc         1 78X       0.061700
     50 H6           0.8000     5.0060     0.9400 hc         1 78X       0.052700
     51 H5           0.7630     4.2300     2.5010 hc         1 78X       0.052700
     52 H3           1.5360     2.1160     1.5700 h1         1 78X       0.051700
     53 H4           2.6370     3.4220     1.1290 h1         1 78X       0.051700
     54 H8          -0.8510     1.7980    -0.0350 h1         1 78X       0.116700
     55 H26         -0.9240    -3.0580     2.1430 hc         1 78X       0.077700
     56 H27         -0.0790    -5.1820     3.1960 hc         1 78X       0.044033
     57 H28         -1.8270    -5.0900     3.1440 hc         1 78X       0.044033
     58 H29         -0.9670    -6.1150     1.9970 hc         1 78X       0.044033
     59 H30         -1.9670    -4.8840    -0.0530 h1         1 78X       0.043700
     60 H31         -3.5150    -5.0200     1.7100 hc         1 78X       0.050200
     61 H32         -3.3000    -3.3600     2.2140 hc         1 78X       0.050200
     62 H33         -4.5810    -4.0950    -0.4580 hc         1 78X       0.043200
     63 H34         -5.4860    -4.0260     1.0320 hc         1 78X       0.043200
     64 H35         -4.5700     2.7960    -1.7420 h1         1 78X       0.070700
     65 H36         -4.3850     0.4740    -0.4320 ha         1 78X       0.138000
     66 H37         -7.8050    -0.1440     2.0670 ha         1 78X       0.129000
     67 H38         -8.2480     2.2770     2.0410 ha         1 78X       0.131000
     68 H39         -6.7750     3.7990     0.8110 ha         1 78X       0.131000
     69 H40         -6.5850    -2.0210     1.4360 ha         1 78X       0.117000
     70 H41         -4.0190    -1.5960    -0.1530 ha         1 78X       0.136000
     71 H42         -1.9130    -2.1370    -2.1590 h1         1 78X       0.034700
     72 H43         -1.4360    -3.8380    -2.0050 h1         1 78X       0.034700
     73 H44         -3.1420    -3.3790    -1.8850 h1         1 78X       0.034700
     74 H45         -4.8360     4.9920     0.3730 hc         1 78X       0.050033
     75 H46         -4.1910     5.1800    -1.2630 hc         1 78X       0.050033
     76 H47         -5.8830     4.7840    -1.0350 hc         1 78X       0.050033
     77 H1           3.9850    -0.8290    -0.9010 hn         1 78X       0.334500
     78 H12          3.3510     1.3960     0.6090 h1         1 78X       0.060700
     79 H13          4.4990     1.3890    -2.2090 hc         1 78X       0.072200
     80 H14          4.5870     2.7160    -1.0610 hc         1 78X       0.072200
     81 H17          6.1060    -0.3860    -2.1430 ha         1 78X       0.136000
     82 H16          8.1070    -1.3950    -1.1050 ha         1 78X       0.137000
     83 H7           5.8000     2.3390     1.1520 ha         1 78X       0.128000
     84 H15          8.9690    -0.5450     1.0460 ha         1 78X       0.150000
     85 H48          7.4170     2.1130     2.7510 ho         1 78X       0.426000
     86 H9          -0.0210    -2.2920    -0.0760 hn         1 78X       0.350500
     87 H18          2.8070    -2.9080     0.2800 h1         1 78X       0.086700
     88 H19          3.4280    -2.5570    -2.0050 hc         1 78X       0.037700
     89 H20          1.3370    -4.7670    -1.8530 hc         1 78X       0.042033
     90 H21          2.6710    -4.6590    -2.9990 hc         1 78X       0.042033
     91 H22          3.0020    -4.8900    -1.2820 hc         1 78X       0.042033
     92 H23          1.5950    -1.0960    -2.8180 hc         1 78X       0.042033
     93 H24          1.7730    -2.5010    -3.8600 hc         1 78X       0.042033
     94 H25          0.4540    -2.4370    -2.7030 hc         1 78X       0.042033
     95 C39         -2.1230    -3.0700    -1.6360 c3         1 78X       0.119700
@<TRIPOS>BOND
     1     1     2 1   
     2     1     5 1   
     3     1    38 1   
     4     2     6 1   
     5     2    47 1   
     6     3     4 1   
     7     3     6 1   
     8     3    48 1   
     9     3    49 1   
    10     4     5 1   
    11     4    50 1   
    12     4    51 1   
    13     5    52 1   
    14     5    53 1   
    15     6    13 1   
    16     6    54 1   
    17     7     8 1   
    18     7    24 2   
    19     7    40 1   
    20     8     9 1   
    21     8    10 1   
    22     8    55 1   
    23     9    56 1   
    24     9    57 1   
    25     9    58 1   
    26    10    11 1   
    27    10    26 1   
    28    10    59 1   
    29    11    12 1   
    30    11    60 1   
    31    11    61 1   
    32    12    22 1   
    33    12    62 1   
    34    12    63 1   
    35    13    25 2   
    36    13    27 1   
    37    14    15 1   
    38    14    23 1   
    39    14    27 1   
    40    14    64 1   
    41    15    16 ar  
    42    15    20 ar  
    43    16    17 ar  
    44    16    65 1   
    45    17    18 ar  
    46    17    21 1   
    47    18    19 ar  
    48    18    66 1   
    49    19    20 ar  
    50    19    67 1   
    51    20    68 1   
    52    21    22 2   
    53    21    69 1   
    54    22    70 1   
    55    23    74 1   
    56    23    75 1   
    57    23    76 1   
    58    26    95 1   
    59    28    29 1   
    60    28    42 1   
    61    28    77 1   
    62    29    30 1   
    63    29    38 1   
    64    29    78 1   
    65    30    31 1   
    66    30    79 1   
    67    30    80 1   
    68    31    32 ar  
    69    31    34 ar  
    70    32    33 ar  
    71    32    81 1   
    72    33    36 ar  
    73    33    82 1   
    74    34    35 ar  
    75    34    83 1   
    76    35    36 ar  
    77    35    37 1   
    78    36    84 1   
    79    37    85 1   
    80    38    39 2   
    81    40    41 1   
    82    40    86 1   
    83    41    42 1   
    84    41    44 1   
    85    41    87 1   
    86    42    43 2   
    87    44    45 1   
    88    44    46 1   
    89    44    88 1   
    90    45    89 1   
    91    45    90 1   
    92    45    91 1   
    93    46    92 1   
    94    46    93 1   
    95    46    94 1   
    96    71    95 1   
    97    72    95 1   
    98    73    95 1   
@<TRIPOS>SUBSTRUCTURE
     1 78X         1 TEMP              0 ****  ****    0 ROOT
