@<TRIPOS>MOLECULE
78X
   95    98     1     0     0
SMALL
No Charge or Current Charge


@<TRIPOS>ATOM
      1 N1           1.7300     2.9260    -0.6290 n          1 78X      -0.292200
      2 N2           0.4740     3.2720    -1.2960 n7         1 78X      -0.563400
      3 C5          -0.7830     3.3540     0.8820 c6         1 78X      -0.096400
      4 C6           0.5490     4.0340     1.3170 c6         1 78X      -0.101400
      5 C7           1.7920     3.2430     0.8290 c6         1 78X       0.082000
      6 C8          -0.7180     2.7470    -0.5590 c6         1 78X       0.075500
      7 C23          0.3840    -3.7530     0.4720 c          1 78X       0.602100
      8 C24         -0.7880    -3.8820     1.4610 c3         1 78X      -0.151700
      9 C25         -0.4690    -4.9160     2.5720 c3         1 78X      -0.078100
     10 C26         -2.1140    -4.1600     0.7050 c3         1 78X       0.180300
     11 C27         -3.3650    -4.1320     1.6400 c3         1 78X      -0.089400
     12 C28         -4.7570    -3.9960     0.9730 c3         1 78X      -0.035200
     13 C29         -2.0590     2.8120    -1.3570 c          1 78X       0.602100
     14 C30         -4.4690     2.5190    -1.1570 c3         1 78X       0.228600
     15 C31         -5.3780     1.8270    -0.1310 ca         1 78X      -0.089300
     16 C32         -5.1490     0.4620     0.1500 ca         1 78X      -0.077000
     17 C33         -5.9300    -0.2300     1.0990 ca         1 78X      -0.046800
     18 C34         -6.9500     0.4580     1.7780 ca         1 78X      -0.097000
     19 C35         -7.1940     1.8140     1.5060 ca         1 78X      -0.115000
     20 C36         -6.4130     2.4980     0.5590 ca         1 78X      -0.095000
     21 C37         -5.6630    -1.6580     1.4320 ce         1 78X      -0.176200
     22 C38         -5.0840    -2.5590     0.6080 c2         1 78X      -0.194200
     23 C40         -4.9140     3.9360    -1.5930 c3         1 78X      -0.116100
     24 O44          0.8920    -4.7140    -0.0890 o          1 78X      -0.615100
     25 O45         -2.0980     2.7250    -2.5790 o          1 78X      -0.466000
     26 O46         -2.2340    -3.1250    -0.2920 os         1 78X      -0.470000
     27 O47         -3.1630     2.6240    -0.5580 os         1 78X      -0.452100
     28 N3           3.4660    -0.0100    -0.6920 ns         1 78X      -0.490900
     29 C10          3.8260     1.4150    -0.5050 c3         1 78X       0.041700
     30 C11          5.2880     1.6760    -0.9410 c3         1 78X      -0.049100
     31 C12          6.2920     0.8360    -0.1600 ca         1 78X      -0.047300
     32 C17          6.9520    -0.2460    -0.7750 ca         1 78X      -0.155000
     33 C16          7.8710    -1.0240    -0.0490 ca         1 78X      -0.069000
     34 C13          6.5650     1.1340     1.1900 ca         1 78X      -0.204000
     35 C14          7.4830     0.3570     1.9140 ca         1 78X       0.145100
     36 C15          8.1360    -0.7200     1.2970 ca         1 78X      -0.141000
     37 O42          7.7450     0.6480     3.2190 oh         1 78X      -0.531100
     38 C9           2.8000     2.2720    -1.3170 c          1 78X       0.622100
     39 O41          2.8490     2.3000    -2.5450 o          1 78X      -0.555100
     40 N4           0.8410    -2.4650     0.3060 ns         1 78X      -0.490900
     41 C19          1.9540    -2.0020    -0.5590 c3         1 78X       0.044700
     42 C18          2.4940    -0.6610     0.0380 c          1 78X       0.586100
     43 O43          2.0420    -0.1740     1.0670 o          1 78X      -0.621100
     44 C20          1.5430    -1.8430    -2.0670 c3         1 78X      -0.060700
     45 C21          1.2780    -3.1840    -2.7870 c3         1 78X      -0.093600
     46 C22          0.3630    -0.8600    -2.2690 c3         1 78X      -0.093600
     47 H2           0.4130     4.2920    -1.4360 hn         1 78X       0.429000
     48 H10         -1.0480     2.5600     1.5930 hc         1 78X       0.061700
     49 H11         -1.5890     4.0990     0.9470 hc         1 78X       0.061700
     50 H6           0.5900     5.0520     0.9040 hc         1 78X       0.052700
     51 H5           0.5780     4.1480     2.4090 hc         1 78X       0.052700
     52 H3           1.8470     2.3090     1.4020 h1         1 78X       0.051700
     53 H4           2.7030     3.8200     1.0420 h1         1 78X       0.051700
     54 H8          -0.5650     1.6660    -0.4310 h1         1 78X       0.116700
     55 H26         -0.9180    -2.9070     1.9450 hc         1 78X       0.077700
     56 H27          0.4950    -4.6860     3.0430 hc         1 78X       0.044033
     57 H28         -1.2330    -4.9060     3.3580 hc         1 78X       0.044033
     58 H29         -0.4130    -5.9310     2.1590 hc         1 78X       0.044033
     59 H30         -2.0470    -5.1490     0.2300 h1         1 78X       0.043700
     60 H31         -3.3650    -5.0650     2.2160 hc         1 78X       0.050200
     61 H32         -3.2540    -3.3260     2.3750 hc         1 78X       0.050200
     62 H33         -4.8210    -4.6530     0.0980 hc         1 78X       0.043200
     63 H34         -5.5130    -4.3660     1.6770 hc         1 78X       0.043200
     64 H35         -4.4380     1.8750    -2.0470 h1         1 78X       0.070700
     65 H36         -4.3370    -0.0500    -0.3590 ha         1 78X       0.120000
     66 H37         -7.5560    -0.0570     2.5200 ha         1 78X       0.111000
     67 H38         -7.9860     2.3380     2.0350 ha         1 78X       0.113000
     68 H39         -6.6200     3.5500     0.3820 ha         1 78X       0.113000
     69 H40         -5.9700    -1.9590     2.4360 ha         1 78X       0.167000
     70 H41         -4.7890    -2.2800    -0.4030 ha         1 78X       0.186000
     71 H42         -2.5860    -2.7270    -2.3150 h1         1 78X       0.034700
     72 H43         -1.8110    -4.2900    -1.9850 h1         1 78X       0.034700
     73 H44         -3.5400    -4.0670    -1.6480 h1         1 78X       0.034700
     74 H45         -4.8580     4.6410    -0.7550 hc         1 78X       0.050033
     75 H46         -4.2790     4.3160    -2.4010 hc         1 78X       0.050033
     76 H47         -5.9440     3.9150    -1.9660 hc         1 78X       0.050033
     77 H1           3.8060    -0.4820    -1.5210 hn         1 78X       0.334500
     78 H12          3.7520     1.6600     0.5600 h1         1 78X       0.060700
     79 H13          5.3890     1.4840    -2.0170 hc         1 78X       0.072200
     80 H14          5.5130     2.7410    -0.8030 hc         1 78X       0.072200
     81 H17          6.7520    -0.4890    -1.8160 ha         1 78X       0.118000
     82 H16          8.3770    -1.8590    -0.5290 ha         1 78X       0.119000
     83 H7           6.0590     1.9680     1.6690 ha         1 78X       0.110000
     84 H15          8.8460    -1.3200     1.8600 ha         1 78X       0.132000
     85 H48          7.2050     1.4250     3.4750 ho         1 78X       0.465000
     86 H9           0.3650    -1.7570     0.8530 hn         1 78X       0.350500
     87 H18          2.7780    -2.7240    -0.4920 h1         1 78X       0.086700
     88 H19          2.4010    -1.4120    -2.5970 hc         1 78X       0.037700
     89 H20          0.3490    -3.6440    -2.4390 hc         1 78X       0.042033
     90 H21          1.1870    -3.0280    -3.8690 hc         1 78X       0.042033
     91 H22          2.1020    -3.8880    -2.6170 hc         1 78X       0.042033
     92 H23          0.6050     0.1310    -1.8700 hc         1 78X       0.042033
     93 H24          0.1380    -0.7410    -3.3360 hc         1 78X       0.042033
     94 H25         -0.5440    -1.2190    -1.7700 hc         1 78X       0.042033
     95 C39         -2.5600    -3.5760    -1.6210 c3         1 78X       0.142900
@<TRIPOS>BOND
     1     1     2 1   
     2     1     5 1   
     3     1    38 1   
     4     2     6 1   
     5     2    47 1   
     6     3     4 1   
     7     3     6 1   
     8     3    48 1   
     9     3    49 1   
    10     4     5 1   
    11     4    50 1   
    12     4    51 1   
    13     5    52 1   
    14     5    53 1   
    15     6    13 1   
    16     6    54 1   
    17     7     8 1   
    18     7    24 2   
    19     7    40 1   
    20     8     9 1   
    21     8    10 1   
    22     8    55 1   
    23     9    56 1   
    24     9    57 1   
    25     9    58 1   
    26    10    11 1   
    27    10    26 1   
    28    10    59 1   
    29    11    12 1   
    30    11    60 1   
    31    11    61 1   
    32    12    22 1   
    33    12    62 1   
    34    12    63 1   
    35    13    25 2   
    36    13    27 1   
    37    14    15 1   
    38    14    23 1   
    39    14    27 1   
    40    14    64 1   
    41    15    16 ar  
    42    15    20 ar  
    43    16    17 ar  
    44    16    65 1   
    45    17    18 ar  
    46    17    21 1   
    47    18    19 ar  
    48    18    66 1   
    49    19    20 ar  
    50    19    67 1   
    51    20    68 1   
    52    21    22 2   
    53    21    69 1   
    54    22    70 1   
    55    23    74 1   
    56    23    75 1   
    57    23    76 1   
    58    26    95 1   
    59    28    29 1   
    60    28    42 1   
    61    28    77 1   
    62    29    30 1   
    63    29    38 1   
    64    29    78 1   
    65    30    31 1   
    66    30    79 1   
    67    30    80 1   
    68    31    32 ar  
    69    31    34 ar  
    70    32    33 ar  
    71    32    81 1   
    72    33    36 ar  
    73    33    82 1   
    74    34    35 ar  
    75    34    83 1   
    76    35    36 ar  
    77    35    37 1   
    78    36    84 1   
    79    37    85 1   
    80    38    39 2   
    81    40    41 1   
    82    40    86 1   
    83    41    42 1   
    84    41    44 1   
    85    41    87 1   
    86    42    43 2   
    87    44    45 1   
    88    44    46 1   
    89    44    88 1   
    90    45    89 1   
    91    45    90 1   
    92    45    91 1   
    93    46    92 1   
    94    46    93 1   
    95    46    94 1   
    96    71    95 1   
    97    72    95 1   
    98    73    95 1   
@<TRIPOS>SUBSTRUCTURE
     1 78X         1 TEMP              0 ****  ****    0 ROOT
