@<TRIPOS>MOLECULE
78Y
   25    26     1     0     0
SMALL
bcc


@<TRIPOS>ATOM
      1 C4           1.6540     0.0390     0.0040 ca         1 78Y       0.017800
      2 C5           2.1540    -1.2570    -0.0290 ca         1 78Y      -0.118500
      3 C6           3.5260    -1.4540    -0.0310 ca         1 78Y      -0.119000
      4 N1          -0.5980    -0.7370     0.0490 nc         1 78Y      -0.492800
      5 C7           4.3940    -0.3710    -0.0010 ca         1 78Y      -0.125000
      6 C8           3.8800     0.9180     0.0310 ca         1 78Y      -0.119000
      7 N2           0.2560     0.2460     0.0070 na         1 78Y       0.362800
      8 C9           2.5100     1.1330     0.0340 ca         1 78Y      -0.118500
      9 N3          -0.2820     1.4490    -0.0300 nc         1 78Y      -0.511800
     10 O           -4.1220    -0.3140     0.0370 o          1 78Y      -0.601100
     11 N           -2.9270    -2.2340     0.1510 nt         1 78Y      -0.661000
     12 C1          -1.7820    -0.1500     0.0360 cd         1 78Y       0.144500
     13 C2          -1.5860     1.2440    -0.0140 cd         1 78Y       0.282300
     14 C3          -2.5680     2.3560    -0.0450 c3         1 78Y      -0.116400
     15 H1           1.4840    -2.1050    -0.0530 ha         1 78Y       0.159000
     16 H2           3.9130    -2.4640    -0.0580 ha         1 78Y       0.138500
     17 H3           5.4640    -0.5300    -0.0030 ha         1 78Y       0.137000
     18 H4           4.5480     1.7680     0.0530 ha         1 78Y       0.138500
     19 H5           2.1170     2.1400     0.0610 ha         1 78Y       0.159000
     20 H6          -3.7460    -2.8180     0.2000 hn         1 78Y       0.323500
     21 H7          -2.0280    -2.6820     0.2010 hn         1 78Y       0.323500
     22 H8          -3.2130     2.3300     0.8320 hc         1 78Y       0.061033
     23 H9          -2.0540     3.3140    -0.0690 hc         1 78Y       0.061033
     24 H10         -3.2110     2.2850    -0.9210 hc         1 78Y       0.061033
     25 C           -3.0520    -0.9050     0.0750 c          1 78Y       0.614600
@<TRIPOS>BOND
     1     1     2 ar  
     2     1     7 1   
     3     1     8 ar  
     4     2     3 ar  
     5     2    15 1   
     6     3     5 ar  
     7     3    16 1   
     8     4     7 1   
     9     4    12 2   
    10     5     6 ar  
    11     5    17 1   
    12     6     8 ar  
    13     6    18 1   
    14     7     9 1   
    15     8    19 1   
    16     9    13 2   
    17    10    25 2   
    18    11    20 1   
    19    11    21 1   
    20    11    25 1   
    21    12    13 1   
    22    12    25 1   
    23    13    14 1   
    24    14    22 1   
    25    14    23 1   
    26    14    24 1   
@<TRIPOS>SUBSTRUCTURE
     1 78Y         1 TEMP              0 ****  ****    0 ROOT
