@<TRIPOS>MOLECULE
78Y
   25    26     1     0     0
SMALL
No Charge or Current Charge


@<TRIPOS>ATOM
      1 C4           1.6530     0.0410    -0.0220 ca         1 78Y       0.017800
      2 C5           2.2240    -1.0800    -0.6620 ca         1 78Y      -0.100500
      3 C6           3.6170    -1.2760    -0.6470 ca         1 78Y      -0.101000
      4 N1          -0.5920    -0.7840     0.2870 nc         1 78Y      -0.492800
      5 C7           4.4500    -0.3540     0.0090 ca         1 78Y      -0.107000
      6 C8           3.8910     0.7650     0.6490 ca         1 78Y      -0.101000
      7 N2           0.2670     0.2370    -0.0370 na         1 78Y       0.362800
      8 C9           2.4990     0.9630     0.6340 ca         1 78Y      -0.100500
      9 N3          -0.2700     1.4540    -0.3760 nc         1 78Y      -0.511800
     10 O           -4.1730    -0.2830     0.2500 o          1 78Y      -0.601100
     11 N           -3.0350    -2.1270     0.7550 nt         1 78Y      -0.594000
     12 C1          -1.7590    -0.1670     0.1420 cd         1 78Y       0.144500
     13 C2          -1.5520     1.1800    -0.2570 cd         1 78Y       0.282300
     14 C3          -2.5830     2.2430    -0.5360 c3         1 78Y      -0.116400
     15 H1           1.5870    -1.7990    -1.1740 ha         1 78Y       0.141000
     16 H2           4.0490    -2.1430    -1.1430 ha         1 78Y       0.120500
     17 H3           5.5270    -0.5060     0.0200 ha         1 78Y       0.119000
     18 H4           4.5360     1.4790     1.1560 ha         1 78Y       0.120500
     19 H5           2.0750     1.8310     1.1330 ha         1 78Y       0.141000
     20 H6          -3.8910    -2.6320     0.9280 hn         1 78Y       0.323500
     21 H7          -2.1360    -2.5770     0.8590 hn         1 78Y       0.323500
     22 H8          -3.1970     2.4320     0.3510 hc         1 78Y       0.061033
     23 H9          -2.1170     3.1920    -0.8280 hc         1 78Y       0.061033
     24 H10         -3.2490     1.9350    -1.3510 hc         1 78Y       0.061033
     25 C           -3.0860    -0.8260     0.3760 c          1 78Y       0.547600
@<TRIPOS>BOND
     1     1     2 ar  
     2     1     7 1   
     3     1     8 ar  
     4     2     3 ar  
     5     2    15 1   
     6     3     5 ar  
     7     3    16 1   
     8     4     7 1   
     9     4    12 2   
    10     5     6 ar  
    11     5    17 1   
    12     6     8 ar  
    13     6    18 1   
    14     7     9 1   
    15     8    19 1   
    16     9    13 2   
    17    10    25 2   
    18    11    20 1   
    19    11    21 1   
    20    11    25 1   
    21    12    13 1   
    22    12    25 1   
    23    13    14 1   
    24    14    22 1   
    25    14    23 1   
    26    14    24 1   
@<TRIPOS>SUBSTRUCTURE
     1 78Y         1 TEMP              0 ****  ****    0 ROOT
