@<TRIPOS>MOLECULE
78Z
   36    38     1     0     0
SMALL
No Charge or Current Charge


@<TRIPOS>ATOM
      1 C10         -4.5600     4.0040     0.5730 c3         1 78Z      -0.155400
      2 C9          -3.7030     2.7730     0.5170 cc         1 78Z       0.443300
      3 N5          -4.1900     1.6520     1.0450 nd         1 78Z      -0.657000
      4 C11         -3.2710     0.6370     0.8920 cd         1 78Z       0.440500
      5 N4          -3.5350    -0.5910     1.2560 nc         1 78Z      -0.361300
      6 C12         -2.4030    -1.2720     0.8610 cc         1 78Z       0.466300
      7 N3          -1.4420    -0.5700     0.2560 nd         1 78Z      -0.558100
      8 N2          -2.0250     0.6680     0.3310 na         1 78Z       0.050900
      9 C8          -2.4180     2.9100    -0.1190 cc         1 78Z      -0.301000
     10 C7          -1.5310     1.8630    -0.2170 cd         1 78Z       0.389000
     11 C13         -2.3110    -2.7810     1.0810 c3         1 78Z       0.200700
     12 C14         -2.8920    -3.5780    -0.1060 c3         1 78Z      -0.143100
     13 F4          -1.0250    -3.1710     1.2620 f          1 78Z      -0.104000
     14 F5          -2.9720    -3.1540     2.2040 f          1 78Z      -0.104000
     15 N1          -0.3110     2.0020    -0.8430 nu         1 78Z      -0.971000
     16 C2           0.9400     1.3580    -0.6830 ca         1 78Z       0.272000
     17 C3           1.3070     0.7840     0.5480 ca         1 78Z      -0.093000
     18 C4           2.5680     0.1710     0.6720 ca         1 78Z      -0.075000
     19 C5           3.4500     0.1490    -0.4290 ca         1 78Z       0.219300
     20 N6           3.1200     0.7170    -1.6210 nb         1 78Z      -0.606000
     21 C1           1.8990     1.3060    -1.7330 ca         1 78Z       0.316900
     22 C16          4.8310    -0.5220    -0.2900 c3         1 78Z       0.271700
     23 F1           5.5550    -0.5070    -1.4360 f          1 78Z      -0.105667
     24 F2           5.5860     0.0870     0.6530 f          1 78Z      -0.105667
     25 F3           4.7180    -1.8200     0.0790 f          1 78Z      -0.105667
     26 H102        -4.7890     4.3590    -0.4380 hc         1 78Z       0.064700
     27 H103        -5.5100     3.8140     1.0860 hc         1 78Z       0.064700
     28 H101        -4.0440     4.8080     1.1080 hc         1 78Z       0.064700
     29 H81         -2.1510     3.8820    -0.5150 ha         1 78Z       0.142000
     30 H142        -2.3510    -3.3430    -1.0310 hc         1 78Z       0.071033
     31 H143        -2.8120    -4.6570     0.0740 hc         1 78Z       0.071033
     32 H141        -3.9510    -3.3330    -0.2560 hc         1 78Z       0.071033
     33 H11         -0.3240     2.7270    -1.5640 hn         1 78Z       0.514000
     34 H31          0.6350     0.8210     1.4000 ha         1 78Z       0.136000
     35 H41          2.8630    -0.2800     1.6170 ha         1 78Z       0.148000
     36 H12          1.6750     1.7500    -2.7020 h4         1 78Z       0.031100
@<TRIPOS>BOND
     1     1     2 1   
     2     1    26 1   
     3     1    27 1   
     4     1    28 1   
     5     2     3 2   
     6     2     9 1   
     7     3     4 1   
     8     4     5 2   
     9     4     8 1   
    10     5     6 1   
    11     6     7 2   
    12     6    11 1   
    13     7     8 1   
    14     8    10 1   
    15     9    10 2   
    16     9    29 1   
    17    10    15 1   
    18    11    12 1   
    19    11    13 1   
    20    11    14 1   
    21    12    30 1   
    22    12    31 1   
    23    12    32 1   
    24    15    16 1   
    25    15    33 1   
    26    16    17 ar  
    27    16    21 ar  
    28    17    18 ar  
    29    17    34 1   
    30    18    19 ar  
    31    18    35 1   
    32    19    20 ar  
    33    19    22 1   
    34    20    21 ar  
    35    21    36 1   
    36    22    23 1   
    37    22    24 1   
    38    22    25 1   
@<TRIPOS>SUBSTRUCTURE
     1 78Z         1 TEMP              0 ****  ****    0 ROOT
