@<TRIPOS>MOLECULE
78Z
   36    38     1     0     0
SMALL
abcg2


@<TRIPOS>ATOM
      1 C10         -4.5140     3.9450     0.6770 c3         1 78Z      -0.155400
      2 C9          -3.6020     2.7760     0.4950 cc         1 78Z       0.443300
      3 N5          -4.0020     1.6040     0.9500 nd         1 78Z      -0.657000
      4 C11         -3.1750     0.5830     0.7630 cd         1 78Z       0.440500
      5 N4          -3.3490    -0.6920     1.0690 nc         1 78Z      -0.361300
      6 C12         -2.2350    -1.2700     0.6080 cc         1 78Z       0.466300
      7 N3          -1.3570    -0.4840     0.0290 nd         1 78Z      -0.558100
      8 N2          -1.9510     0.7120     0.1430 na         1 78Z       0.050900
      9 C8          -2.3580     2.9700    -0.1340 cc         1 78Z      -0.301000
     10 C7          -1.4970     1.9120    -0.3090 cd         1 78Z       0.389000
     11 C13         -2.0240    -2.7510     0.7250 c3         1 78Z       0.200700
     12 C14         -3.0090    -3.5670    -0.0670 c3         1 78Z      -0.143100
     13 F4          -0.7510    -3.0410     0.3420 f          1 78Z      -0.104000
     14 F5          -2.1050    -3.0780     2.0510 f          1 78Z      -0.104000
     15 N1          -0.3030     2.0000    -0.9440 nu         1 78Z      -0.971000
     16 C2           0.8780     1.3300    -0.6310 ca         1 78Z       0.272000
     17 C3           1.1710     0.8290     0.6290 ca         1 78Z      -0.093000
     18 C4           2.3870     0.1960     0.8310 ca         1 78Z      -0.075000
     19 C5           3.2670     0.1140    -0.2320 ca         1 78Z       0.219300
     20 N6           3.0090     0.6180    -1.4310 nb         1 78Z      -0.606000
     21 C1           1.8470     1.2040    -1.6310 ca         1 78Z       0.316900
     22 C16          4.6110    -0.5420    -0.1190 c3         1 78Z       0.271700
     23 F1           4.7710    -1.4920    -1.0480 f          1 78Z      -0.105667
     24 F2           5.6040     0.3400    -0.2980 f          1 78Z      -0.105667
     25 F3           4.8010    -1.1150     1.0720 f          1 78Z      -0.105667
     26 H102        -4.8350     4.3300    -0.2930 hc         1 78Z       0.064700
     27 H103        -5.3940     3.6640     1.2500 hc         1 78Z       0.064700
     28 H101        -4.0010     4.7590     1.1900 hc         1 78Z       0.064700
     29 H81         -2.0550     3.9550    -0.4590 ha         1 78Z       0.142000
     30 H142        -2.9130    -3.3420    -1.1280 hc         1 78Z       0.071033
     31 H143        -2.8320    -4.6310     0.0850 hc         1 78Z       0.071033
     32 H141        -4.0260    -3.3310     0.2400 hc         1 78Z       0.071033
     33 H11         -0.2030     2.8120    -1.5380 hn         1 78Z       0.514000
     34 H31          0.4860     0.9390     1.4580 ha         1 78Z       0.136000
     35 H41          2.6280    -0.1980     1.8070 ha         1 78Z       0.148000
     36 H12          1.6560     1.6050    -2.6210 h4         1 78Z       0.031100
@<TRIPOS>BOND
     1     1     2 1   
     2     1    26 1   
     3     1    27 1   
     4     1    28 1   
     5     2     3 2   
     6     2     9 1   
     7     3     4 1   
     8     4     5 2   
     9     4     8 1   
    10     5     6 1   
    11     6     7 2   
    12     6    11 1   
    13     7     8 1   
    14     8    10 1   
    15     9    10 2   
    16     9    29 1   
    17    10    15 1   
    18    11    12 1   
    19    11    13 1   
    20    11    14 1   
    21    12    30 1   
    22    12    31 1   
    23    12    32 1   
    24    15    16 1   
    25    15    33 1   
    26    16    17 ar  
    27    16    21 ar  
    28    17    18 ar  
    29    17    34 1   
    30    18    19 ar  
    31    18    35 1   
    32    19    20 ar  
    33    19    22 1   
    34    20    21 ar  
    35    21    36 1   
    36    22    23 1   
    37    22    24 1   
    38    22    25 1   
@<TRIPOS>SUBSTRUCTURE
     1 78Z         1 TEMP              0 ****  ****    0 ROOT
