@<TRIPOS>MOLECULE
790
   25    26     1     0     0
SMALL
No Charge or Current Charge


@<TRIPOS>ATOM
      1 C1          -1.4040    -0.2450    -3.7430 c6         1 790      -0.082400
      2 C2           0.1390    -0.1150    -3.6930 c6         1 790       0.000900
      3 C3           0.6940    -0.1770    -2.2610 ca         1 790      -0.167300
      4 C4          -0.1500     0.0430    -1.1430 ca         1 790       0.256000
      5 N5          -1.5200     0.2910    -1.3640 nu         1 790      -0.926200
      6 C6          -2.0620     0.6550    -2.6760 c6         1 790       0.227800
      7 C13          2.0640    -0.4290    -2.0620 ca         1 790      -0.172000
      8 C14          2.5970    -0.4700    -0.7660 ca         1 790      -0.142000
      9 C15          1.7700    -0.2570     0.3490 ca         1 790      -0.164000
     10 C16          0.3910     0.0030     0.1760 ca         1 790       0.239100
     11 O17         -0.4610     0.2220     1.2450 os         1 790      -0.455500
     12 P18         -0.1170     0.2340     2.8210 p5         1 790       1.250900
     13 O19         -1.3650     0.5150     3.5840 o          1 790      -0.900833
     14 O20          0.4210    -1.0920     3.2350 o          1 790      -0.900833
     15 O21          0.8860     1.2940     3.1160 o          1 790      -0.900833
     16 H11         -1.7730     0.0220    -4.7420 hc         1 790       0.027700
     17 H12         -1.6920    -1.2910    -3.5700 hc         1 790       0.027700
     18 H21A         0.4350     0.8420    -4.1450 hc         1 790       0.008700
     19 H22          0.5920    -0.9020    -4.3110 hc         1 790       0.008700
     20 HN5         -2.0670     0.5020    -0.5250 hn         1 790       0.505000
     21 H61         -1.8310     1.7070    -2.8970 h1         1 790      -0.000300
     22 H62         -3.1550     0.5360    -2.6910 h1         1 790      -0.000300
     23 H13          2.7170    -0.5900    -2.9160 ha         1 790       0.056000
     24 H14          3.6570    -0.6670    -0.6240 ha         1 790       0.067000
     25 H15          2.2110    -0.2940     1.3390 ha         1 790       0.138000
@<TRIPOS>BOND
     1     1     2 1   
     2     1     6 1   
     3     1    16 1   
     4     1    17 1   
     5     2     3 1   
     6     2    18 1   
     7     2    19 1   
     8     3     4 ar  
     9     3     7 ar  
    10     4     5 1   
    11     4    10 ar  
    12     5     6 1   
    13     5    20 1   
    14     6    21 1   
    15     6    22 1   
    16     7     8 ar  
    17     7    23 1   
    18     8     9 ar  
    19     8    24 1   
    20     9    10 ar  
    21     9    25 1   
    22    10    11 1   
    23    11    12 1   
    24    12    13 1   
    25    12    14 1   
    26    12    15 1   
@<TRIPOS>SUBSTRUCTURE
     1 790         1 TEMP              0 ****  ****    0 ROOT
