@<TRIPOS>MOLECULE
790
   25    26     1     0     0
SMALL
abcg2


@<TRIPOS>ATOM
      1 C1          -1.4210    -0.5550    -3.3960 c6         1 790      -0.082400
      2 C2           0.0840    -0.3570    -3.5330 c6         1 790       0.000900
      3 C3           0.7570    -0.1310    -2.2010 ca         1 790      -0.167300
      4 C4          -0.0020     0.2470    -1.0870 ca         1 790       0.256000
      5 N5          -1.3740     0.3530    -1.1610 nu         1 790      -0.926200
      6 C6          -1.9980     0.4900    -2.4540 c6         1 790       0.227800
      7 C13          2.1370    -0.2810    -2.0700 ca         1 790      -0.172000
      8 C14          2.7720    -0.0380    -0.8640 ca         1 790      -0.142000
      9 C15          2.0200     0.3620     0.2380 ca         1 790      -0.164000
     10 C16          0.6460     0.5200     0.1390 ca         1 790       0.239100
     11 O17         -0.0970     0.9740     1.1650 os         1 790      -0.455500
     12 P18         -0.4770    -0.1100     2.4840 p5         1 790       1.250900
     13 O19         -1.4100     0.7830     3.2840 o          1 790      -0.900833
     14 O20         -1.1220    -1.3040     1.8020 o          1 790      -0.900833
     15 O21          0.8670    -0.3940     3.1370 o          1 790      -0.900833
     16 H11         -1.9030    -0.4850    -4.3720 hc         1 790       0.027700
     17 H12         -1.6400    -1.5500    -3.0000 hc         1 790       0.027700
     18 H21A         0.2690     0.5040    -4.1840 hc         1 790       0.008700
     19 H22          0.5340    -1.2140    -4.0390 hc         1 790       0.008700
     20 HN5         -1.7970     0.8580    -0.4000 hn         1 790       0.505000
     21 H61         -1.8490     1.4900    -2.8880 h1         1 790      -0.000300
     22 H62         -3.0730     0.3490    -2.3370 h1         1 790      -0.000300
     23 H13          2.7140    -0.5850    -2.9380 ha         1 790       0.056000
     24 H14          3.8450    -0.1570    -0.7750 ha         1 790       0.067000
     25 H15          2.4970     0.5680     1.1870 ha         1 790       0.138000
@<TRIPOS>BOND
     1     1     2 1   
     2     1     6 1   
     3     1    16 1   
     4     1    17 1   
     5     2     3 1   
     6     2    18 1   
     7     2    19 1   
     8     3     4 ar  
     9     3     7 ar  
    10     4     5 1   
    11     4    10 ar  
    12     5     6 1   
    13     5    20 1   
    14     6    21 1   
    15     6    22 1   
    16     7     8 ar  
    17     7    23 1   
    18     8     9 ar  
    19     8    24 1   
    20     9    10 ar  
    21     9    25 1   
    22    10    11 1   
    23    11    12 1   
    24    12    13 1   
    25    12    14 1   
    26    12    15 1   
@<TRIPOS>SUBSTRUCTURE
     1 790         1 TEMP              0 ****  ****    0 ROOT
