@<TRIPOS>MOLECULE
791
   19    19     1     0     0
SMALL
bcc


@<TRIPOS>ATOM
      1 C1          -3.4340     0.1890     0.4090 ca         1 791      -0.204000
      2 C2          -3.0420    -0.0000    -0.9070 ca         1 791      -0.161000
      3 C3          -1.6900    -0.0660    -1.2280 ca         1 791      -0.125000
      4 C4          -0.7020     0.0570    -0.2530 ca         1 791       0.063700
      5 C5          -1.1130     0.2480     1.0690 ca         1 791      -0.125000
      6 C6          -2.4590     0.3110     1.3950 ca         1 791      -0.161000
      7 C12          0.7450    -0.0440    -0.6310 c3         1 791      -0.304400
      8 C13          1.6020     1.1980    -0.2890 c          1 791       0.963100
      9 C14          1.4060    -1.2800     0.0310 c          1 791       0.963100
     10 O16          2.7810     1.1430    -0.6990 o          1 791      -0.864550
     11 O17          1.0830     2.1390     0.3360 o          1 791      -0.864550
     12 O18          1.6820    -2.2450    -0.7080 o          1 791      -0.864550
     13 O19          1.6010    -1.2120     1.2610 o          1 791      -0.864550
     14 H1          -4.4840     0.2410     0.6670 ha         1 791       0.076000
     15 H2          -3.7860    -0.0980    -1.6880 ha         1 791       0.082000
     16 H3          -1.3990    -0.2150    -2.2620 ha         1 791       0.139000
     17 H5          -0.3680     0.3310     1.8460 ha         1 791       0.139000
     18 H6          -2.7540     0.4590     2.4270 ha         1 791       0.082000
     19 H12          0.7980    -0.1780    -1.7160 hc         1 791       0.030700
@<TRIPOS>BOND
     1     1     2 ar  
     2     1     6 ar  
     3     1    14 1   
     4     2     3 ar  
     5     2    15 1   
     6     3     4 ar  
     7     3    16 1   
     8     4     5 ar  
     9     4     7 1   
    10     5     6 ar  
    11     5    17 1   
    12     6    18 1   
    13     7     8 1   
    14     7     9 1   
    15     7    19 1   
    16     8    10 1   
    17     8    11 1   
    18     9    12 1   
    19     9    13 1   
@<TRIPOS>SUBSTRUCTURE
     1 791         1 TEMP              0 ****  ****    0 ROOT
