@<TRIPOS>MOLECULE
791
   19    19     1     0     0
SMALL
No Charge or Current Charge


@<TRIPOS>ATOM
      1 C1          -3.4650     0.2570     0.3510 ca         1 791      -0.186000
      2 C2          -3.0370     0.0030    -0.9600 ca         1 791      -0.143000
      3 C3          -1.6650    -0.1140    -1.2440 ca         1 791      -0.107000
      4 C4          -0.7020     0.0210    -0.2210 ca         1 791       0.063700
      5 C5          -1.1470     0.2750     1.0960 ca         1 791      -0.107000
      6 C6          -2.5200     0.3930     1.3790 ca         1 791      -0.143000
      7 C12          0.7860    -0.1130    -0.5670 c3         1 791      -0.304400
      8 C13          1.5960     1.1500    -0.3200 c          1 791       0.752500
      9 C14          1.4770    -1.2850     0.1120 c          1 791       0.752500
     10 O16          2.1350     1.6710    -1.2860 o          1 791      -0.759250
     11 O17          1.6340     1.6440     0.7960 o          1 791      -0.759250
     12 O18          1.9490    -2.1540    -0.6080 o          1 791      -0.759250
     13 O19          1.4870    -1.3690     1.3300 o          1 791      -0.759250
     14 H1          -4.5250     0.3470     0.5710 ha         1 791       0.058000
     15 H2          -3.7680    -0.1020    -1.7590 ha         1 791       0.064000
     16 H3          -1.3510    -0.3100    -2.2670 ha         1 791       0.121000
     17 H5          -0.4300     0.3840     1.9040 ha         1 791       0.121000
     18 H6          -2.8480     0.5890     2.3970 ha         1 791       0.064000
     19 H12          0.8620    -0.3080    -1.6450 hc         1 791       0.030700
@<TRIPOS>BOND
     1     1     2 ar  
     2     1     6 ar  
     3     1    14 1   
     4     2     3 ar  
     5     2    15 1   
     6     3     4 ar  
     7     3    16 1   
     8     4     5 ar  
     9     4     7 1   
    10     5     6 ar  
    11     5    17 1   
    12     6    18 1   
    13     7     8 1   
    14     7     9 1   
    15     7    19 1   
    16     8    10 1   
    17     8    11 1   
    18     9    12 1   
    19     9    13 1   
@<TRIPOS>SUBSTRUCTURE
     1 791         1 TEMP              0 ****  ****    0 ROOT
