@<TRIPOS>MOLECULE
792
   51    53     1     0     0
SMALL
No Charge or Current Charge


@<TRIPOS>ATOM
      1 C1           1.7040     1.9350     2.5250 ca         1 792      -0.149000
      2 C2           0.3100     1.8880     2.4130 ca         1 792      -0.053200
      3 C3          -0.3150     1.9770     1.2030 ca         1 792      -0.092800
      4 C4           0.4000     2.1150     0.0050 ca         1 792      -0.037000
      5 C5           1.8110     2.1670     0.0780 ca         1 792      -0.116300
      6 C6           2.4570     2.0810     1.3390 ca         1 792      -0.098000
      7 S7          -2.5610    -2.0590     0.0700 sy         1 792       1.137600
      8 C8          -0.8240    -1.7760    -0.2830 ca         1 792      -0.334500
      9 C9          -0.3840    -1.6280    -1.6120 ca         1 792       0.026500
     10 C10          0.9740    -1.3880    -1.8740 ca         1 792      -0.196000
     11 C11          1.8990    -1.2950    -0.8230 ca         1 792       0.180100
     12 C12          1.4570    -1.4420     0.5080 ca         1 792      -0.196000
     13 C13          0.0990    -1.6800     0.7780 ca         1 792       0.026500
     14 O14          3.2180    -1.0590    -1.1480 os         1 792      -0.340100
     15 C15          4.2420    -0.9500    -0.1460 c3         1 792       0.251700
     16 C16          5.5100    -0.6260    -0.8080 c1         1 792      -0.139100
     17 C17          6.5490    -0.3280    -1.3520 c1         1 792      -0.121100
     18 C18          7.7920     0.0610    -2.0280 c3         1 792      -0.004000
     19 O19         -3.3000    -2.3630    -1.1580 o          1 792      -0.549000
     20 O20         -2.6900    -2.8870     1.2710 o          1 792      -0.549000
     21 N21         -0.6400     1.7630     3.4090 na         1 792      -0.235700
     22 C22         -1.9340     1.7710     2.8450 cc         1 792      -0.190100
     23 C23         -1.7330     1.9010     1.4750 cd         1 792      -0.120400
     24 C24         -2.8270     1.9220     0.4310 c3         1 792      -0.019200
     25 C25         -2.8640     0.6140    -0.3930 c3         1 792       0.066500
     26 C26         -3.9210     0.6940    -1.5610 c          1 792       0.731000
     27 N27         -3.0390    -0.5340     0.5580 n7         1 792      -0.791300
     28 O28         -3.5130     0.6140    -2.7140 o          1 792      -0.704000
     29 O29         -5.1010     0.8810    -1.2840 o          1 792      -0.704000
     30 C48          2.6280     2.3240    -1.1960 c3         1 792      -0.039800
     31 H1           2.1940     1.8680     3.4930 ha         1 792       0.098000
     32 H4          -0.1150     2.1830    -0.9500 ha         1 792       0.134000
     33 H6           3.5420     2.1290     1.3990 ha         1 792       0.097000
     34 H9          -1.0870    -1.6900    -2.4420 ha         1 792       0.134000
     35 H10          1.3130    -1.2710    -2.9000 ha         1 792       0.114500
     36 H12          2.1440    -1.3690     1.3450 ha         1 792       0.114500
     37 H13         -0.2300    -1.7850     1.8110 ha         1 792       0.134000
     38 H15          4.0050    -0.1540     0.5710 h1         1 792       0.054200
     39 H15A         4.3520    -1.8940     0.4040 h1         1 792       0.054200
     40 H18          8.6340     0.0210    -1.3280 hc         1 792       0.049700
     41 H18A         7.9990    -0.6170    -2.8640 hc         1 792       0.049700
     42 H18B         7.7100     1.0820    -2.4180 hc         1 792       0.049700
     43 H22         -2.8450     1.6810     3.4320 h4         1 792       0.212000
     44 H24         -3.8020     2.0810     0.9060 hc         1 792       0.066200
     45 H24A        -2.6730     2.7680    -0.2500 hc         1 792       0.066200
     46 H25         -1.8830     0.5390    -0.8770 h1         1 792       0.032700
     47 HN27        -2.3820    -0.3770     1.3180 hn         1 792       0.451000
     48 H48          2.5760     3.3540    -1.5690 hc         1 792       0.036700
     49 H48A         3.6850     2.0810    -1.0330 hc         1 792       0.036700
     50 H48B         2.2560     1.6620    -1.9870 hc         1 792       0.036700
     51 HN21        -0.4310     1.6820     4.4000 hn         1 792       0.338000
@<TRIPOS>BOND
     1     1     2 ar  
     2     1     6 ar  
     3     1    31 1   
     4     2     3 ar  
     5     2    21 1   
     6     3     4 ar  
     7     3    23 1   
     8     4     5 ar  
     9     4    32 1   
    10     5     6 ar  
    11     5    30 1   
    12     6    33 1   
    13     7     8 1   
    14     7    19 2   
    15     7    20 2   
    16     7    27 1   
    17     8     9 ar  
    18     8    13 ar  
    19     9    10 ar  
    20     9    34 1   
    21    10    11 ar  
    22    10    35 1   
    23    11    12 ar  
    24    11    14 1   
    25    12    13 ar  
    26    12    36 1   
    27    13    37 1   
    28    14    15 1   
    29    15    16 1   
    30    15    38 1   
    31    15    39 1   
    32    16    17 3   
    33    17    18 1   
    34    18    40 1   
    35    18    41 1   
    36    18    42 1   
    37    21    22 1   
    38    21    51 1   
    39    22    23 2   
    40    22    43 1   
    41    23    24 1   
    42    24    25 1   
    43    24    44 1   
    44    24    45 1   
    45    25    26 1   
    46    25    27 1   
    47    25    46 1   
    48    26    28 1   
    49    26    29 1   
    50    27    47 1   
    51    30    48 1   
    52    30    49 1   
    53    30    50 1   
@<TRIPOS>SUBSTRUCTURE
     1 792         1 TEMP              0 ****  ****    0 ROOT
