@<TRIPOS>MOLECULE
792
   51    53     1     0     0
SMALL
bcc


@<TRIPOS>ATOM
      1 C1           1.9580     1.8700     1.9630 ca         1 792      -0.167000
      2 C2           0.5740     1.7540     2.0790 ca         1 792      -0.053200
      3 C3          -0.2730     1.8630     0.9590 ca         1 792      -0.092800
      4 C4           0.2890     2.0620    -0.3070 ca         1 792      -0.055000
      5 C5           1.6600     2.1770    -0.4440 ca         1 792      -0.116300
      6 C6           2.4760     2.0880     0.7020 ca         1 792      -0.116000
      7 S7          -2.4580    -1.9780    -0.0730 sy         1 792       1.279200
      8 C8          -0.7380    -1.6710    -0.3290 ca         1 792      -0.334500
      9 C9          -0.2430    -1.4200    -1.6040 ca         1 792       0.008500
     10 C10          1.0990    -1.1500    -1.7740 ca         1 792      -0.214000
     11 C11          1.9560    -1.1240    -0.6730 ca         1 792       0.180100
     12 C12          1.4520    -1.3620     0.6050 ca         1 792      -0.214000
     13 C13          0.1070    -1.6310     0.7710 ca         1 792       0.008500
     14 O14          3.2480    -0.8720    -0.9380 os         1 792      -0.316900
     15 C15          4.1790    -0.9330     0.1310 c3         1 792       0.228500
     16 C16          5.4960    -0.6200    -0.3970 c1         1 792      -0.139100
     17 C17          6.5940    -0.3570    -0.8110 c1         1 792      -0.121100
     18 C18          7.9200    -0.0380    -1.3140 c3         1 792      -0.004000
     19 O19         -3.0670    -2.2020    -1.3740 o          1 792      -0.619800
     20 O20         -2.5850    -2.9880     0.9690 o          1 792      -0.619800
     21 N21         -0.2180     1.5620     3.1750 na         1 792      -0.185400
     22 C22         -1.5290     1.5670     2.7880 cc         1 792      -0.140100
     23 C23         -1.6210     1.7550     1.4350 cd         1 792      -0.120400
     24 C24         -2.8690     1.8210     0.6190 c3         1 792      -0.019200
     25 C25         -3.0650     0.5980    -0.2910 c3         1 792       0.066500
     26 C26         -4.3450     0.7750    -1.1390 c          1 792       0.941600
     27 N27         -3.0940    -0.5990     0.5440 n7         1 792      -0.736100
     28 O28         -4.2310     1.6110    -2.0590 o          1 792      -0.809300
     29 O29         -5.3550     0.1290    -0.8260 o          1 792      -0.809300
     30 C48          2.2900     2.4000    -1.7890 c3         1 792      -0.039800
     31 H1           2.6080     1.7970     2.8250 ha         1 792       0.116000
     32 H4          -0.3490     2.1260    -1.1810 ha         1 792       0.152000
     33 H6           3.5490     2.1900     0.5870 ha         1 792       0.115000
     34 H9          -0.8960    -1.4430    -2.4650 ha         1 792       0.152000
     35 H10          1.4940    -0.9570    -2.7630 ha         1 792       0.132500
     36 H12          2.0880    -1.3400     1.4780 ha         1 792       0.132500
     37 H13         -0.2670    -1.8180     1.7700 ha         1 792       0.152000
     38 H15          3.9160    -0.2170     0.9160 h1         1 792       0.054200
     39 H15A         4.1810    -1.9320     0.5840 h1         1 792       0.054200
     40 H18          8.6710    -0.1750    -0.5360 hc         1 792       0.049700
     41 H18A         8.1880    -0.6830    -2.1520 hc         1 792       0.049700
     42 H18B         7.9730     0.9960    -1.6540 hc         1 792       0.049700
     43 H22         -2.3170     1.4530     3.5170 h4         1 792       0.162000
     44 H24         -3.7370     1.9210     1.2770 hc         1 792       0.066200
     45 H24A        -2.8580     2.7040    -0.0230 hc         1 792       0.066200
     46 H25         -2.2080     0.5690    -0.9760 h1         1 792       0.032700
     47 HN27        -2.7620    -0.4510     1.4940 hn         1 792       0.395800
     48 H48          2.7570     3.3850    -1.8560 hc         1 792       0.036700
     49 H48A         3.0690     1.6620    -1.9870 hc         1 792       0.036700
     50 H48B         1.5540     2.3280    -2.5890 hc         1 792       0.036700
     51 HN21         0.1010     1.4640     4.1240 hn         1 792       0.287700
@<TRIPOS>BOND
     1     1     2 ar  
     2     1     6 ar  
     3     1    31 1   
     4     2     3 ar  
     5     2    21 1   
     6     3     4 ar  
     7     3    23 1   
     8     4     5 ar  
     9     4    32 1   
    10     5     6 ar  
    11     5    30 1   
    12     6    33 1   
    13     7     8 1   
    14     7    19 2   
    15     7    20 2   
    16     7    27 1   
    17     8     9 ar  
    18     8    13 ar  
    19     9    10 ar  
    20     9    34 1   
    21    10    11 ar  
    22    10    35 1   
    23    11    12 ar  
    24    11    14 1   
    25    12    13 ar  
    26    12    36 1   
    27    13    37 1   
    28    14    15 1   
    29    15    16 1   
    30    15    38 1   
    31    15    39 1   
    32    16    17 3   
    33    17    18 1   
    34    18    40 1   
    35    18    41 1   
    36    18    42 1   
    37    21    22 1   
    38    21    51 1   
    39    22    23 2   
    40    22    43 1   
    41    23    24 1   
    42    24    25 1   
    43    24    44 1   
    44    24    45 1   
    45    25    26 1   
    46    25    27 1   
    47    25    46 1   
    48    26    28 1   
    49    26    29 1   
    50    27    47 1   
    51    30    48 1   
    52    30    49 1   
    53    30    50 1   
@<TRIPOS>SUBSTRUCTURE
     1 792         1 TEMP              0 ****  ****    0 ROOT
