@<TRIPOS>MOLECULE
793
   37    39     1     0     0
SMALL
bcc


@<TRIPOS>ATOM
      1 C1          -2.8350    -1.2490    -2.0450 c3         1 793      -0.109100
      2 C2          -2.5860    -0.8180    -0.6050 c3         1 793       0.285800
      3 C3          -3.6110     0.1700    -0.1020 ca         1 793      -0.107300
      4 C4          -4.3610    -0.1200     1.0330 ca         1 793      -0.114500
      5 C5          -5.3050     0.7810     1.5080 ca         1 793      -0.126500
      6 C6          -5.5030     1.9900     0.8550 ca         1 793      -0.116000
      7 C11          1.5410    -2.0620     0.1770 c          1 793       0.499300
      8 C12          0.0660    -2.3760     0.1180 c          1 793       0.477300
      9 C13          3.1550     0.8090    -0.0380 ca         1 793       0.211600
     10 C14          3.7240     1.9400    -0.6260 ca         1 793      -0.302800
     11 C15          5.0170     2.2890    -0.2880 ca         1 793       0.430700
     12 C16          5.2180     0.5380     1.1280 ca         1 793       0.430700
     13 C17          3.9310     0.0950     0.8740 ca         1 793      -0.302800
     14 C7          -4.7560     2.2890    -0.2780 ca         1 793      -0.126500
     15 C8          -3.8210     1.3820    -0.7570 ca         1 793      -0.114500
     16 N1          -1.2480    -0.2410    -0.4500 nu         1 793      -0.729000
     17 C9          -0.1710    -0.9560    -0.2020 cc         1 793       0.023800
     18 C10          1.1970    -0.6730    -0.1240 cd         1 793      -0.063200
     19 O2          -0.6200    -3.3610     0.2450 o          1 793      -0.474100
     20 N2           1.8520     0.4830    -0.3580 nu         1 793      -0.604400
     21 N3           5.7710     1.6090     0.5710 nb         1 793      -0.688000
     22 H1          -2.1150    -2.0100    -2.3470 hc         1 793       0.048367
     23 H1A         -3.8350    -1.6710    -2.1430 hc         1 793       0.048367
     24 H1B         -2.7510    -0.4090    -2.7350 hc         1 793       0.048367
     25 H2          -2.6240    -1.7000     0.0360 h1         1 793       0.082700
     26 H4          -4.2090    -1.0600     1.5490 ha         1 793       0.131500
     27 H5          -5.8830     0.5390     2.3910 ha         1 793       0.135500
     28 H6          -6.2340     2.6960     1.2260 ha         1 793       0.135000
     29 H14          3.1690     2.5380    -1.3380 ha         1 793       0.147500
     30 H15          5.4660     3.1660    -0.7420 h4         1 793       0.018100
     31 H16          5.8290    -0.0100     1.8360 h4         1 793       0.018100
     32 H17          3.5610    -0.7760     1.3910 ha         1 793       0.147500
     33 H7          -4.9040     3.2290    -0.7930 ha         1 793       0.135500
     34 H8          -3.2590     1.6310    -1.6500 ha         1 793       0.131500
     35 HN2          1.3350     1.2000    -0.8470 hn         1 793       0.435800
     36 H151        -1.1420     0.7420    -0.6590 hn         1 793       0.436800
     37 O1           2.5430    -2.7130     0.3700 o          1 793      -0.480100
@<TRIPOS>BOND
     1     1     2 1   
     2     1    22 1   
     3     1    23 1   
     4     1    24 1   
     5     2     3 1   
     6     2    16 1   
     7     2    25 1   
     8     3     4 ar  
     9     3    15 ar  
    10     4     5 ar  
    11     4    26 1   
    12     5     6 ar  
    13     5    27 1   
    14     6    14 ar  
    15     6    28 1   
    16     7     8 1   
    17     7    18 1   
    18     7    37 2   
    19     8    17 1   
    20     8    19 2   
    21     9    10 ar  
    22     9    13 ar  
    23     9    20 1   
    24    10    11 ar  
    25    10    29 1   
    26    11    21 ar  
    27    11    30 1   
    28    12    13 ar  
    29    12    21 ar  
    30    12    31 1   
    31    13    32 1   
    32    14    15 ar  
    33    14    33 1   
    34    15    34 1   
    35    16    17 1   
    36    16    36 1   
    37    17    18 2   
    38    18    20 1   
    39    20    35 1   
@<TRIPOS>SUBSTRUCTURE
     1 793         1 TEMP              0 ****  ****    0 ROOT
