@<TRIPOS>MOLECULE
793
   37    39     1     0     0
SMALL
No Charge or Current Charge


@<TRIPOS>ATOM
      1 C1          -2.9450    -1.4000    -1.9710 c3         1 793      -0.109100
      2 C2          -2.6630    -0.8760    -0.5490 c3         1 793       0.285800
      3 C3          -3.6730     0.1780    -0.0920 ca         1 793      -0.107300
      4 C4          -4.3540     0.0120     1.1320 ca         1 793      -0.096500
      5 C5          -5.2830     0.9730     1.5680 ca         1 793      -0.108500
      6 C6          -5.5380     2.1120     0.7860 ca         1 793      -0.098000
      7 C11          1.6230    -2.1410    -0.0460 c          1 793       0.499300
      8 C12          0.1220    -2.4900    -0.1690 c          1 793       0.477300
      9 C13          3.2300     0.8570     0.0490 ca         1 793       0.350000
     10 C14          3.7530     2.0400    -0.4780 ca         1 793      -0.219500
     11 C15          5.0710     2.3970    -0.1700 ca         1 793       0.365400
     12 C16          5.3480     0.5150     1.1460 ca         1 793       0.365400
     13 C17          4.0420     0.0870     0.8860 ca         1 793      -0.219500
     14 C7          -4.8620     2.2890    -0.4320 ca         1 793      -0.108500
     15 C8          -3.9330     1.3290    -0.8690 ca         1 793      -0.096500
     16 N1          -1.3110    -0.3100    -0.4860 nu         1 793      -0.784200
     17 C9          -0.1300    -1.0270    -0.2990 cc         1 793       0.023800
     18 C10          1.2120    -0.7060    -0.1780 cd         1 793      -0.063200
     19 O2          -0.5450    -3.5270    -0.1670 o          1 793      -0.474100
     20 N2           1.9120     0.4980    -0.2470 nu         1 793      -0.798000
     21 N3           5.8660     1.6510     0.6280 nb         1 793      -0.688000
     22 H1          -2.2550    -2.2130    -2.2250 hc         1 793       0.048367
     23 H1A         -3.9670    -1.7910    -2.0350 hc         1 793       0.048367
     24 H1B         -2.8290    -0.6090    -2.7210 hc         1 793       0.048367
     25 H2          -2.7290    -1.7330     0.1360 h1         1 793       0.082700
     26 H4          -4.1640    -0.8630     1.7500 ha         1 793       0.113500
     27 H5          -5.8040     0.8350     2.5130 ha         1 793       0.117500
     28 H6          -6.2570     2.8550     1.1240 ha         1 793       0.117000
     29 H14          3.1590     2.6760    -1.1260 ha         1 793       0.129500
     30 H15          5.5070     3.3100    -0.5740 h4         1 793       0.018100
     31 H16          6.0030    -0.0630     1.7970 h4         1 793       0.018100
     32 H17          3.6750    -0.8170     1.3540 ha         1 793       0.129500
     33 H7          -5.0560     3.1720    -1.0370 ha         1 793       0.117500
     34 H8          -3.4140     1.4860    -1.8120 ha         1 793       0.113500
     35 HN2          1.3630     1.2750    -0.6260 hn         1 793       0.491000
     36 H151        -1.2420     0.7090    -0.4400 hn         1 793       0.492000
     37 O1           2.6700    -2.7810     0.0590 o          1 793      -0.480100
@<TRIPOS>BOND
     1     1     2 1   
     2     1    22 1   
     3     1    23 1   
     4     1    24 1   
     5     2     3 1   
     6     2    16 1   
     7     2    25 1   
     8     3     4 ar  
     9     3    15 ar  
    10     4     5 ar  
    11     4    26 1   
    12     5     6 ar  
    13     5    27 1   
    14     6    14 ar  
    15     6    28 1   
    16     7     8 1   
    17     7    18 1   
    18     7    37 2   
    19     8    17 1   
    20     8    19 2   
    21     9    10 ar  
    22     9    13 ar  
    23     9    20 1   
    24    10    11 ar  
    25    10    29 1   
    26    11    21 ar  
    27    11    30 1   
    28    12    13 ar  
    29    12    21 ar  
    30    12    31 1   
    31    13    32 1   
    32    14    15 ar  
    33    14    33 1   
    34    15    34 1   
    35    16    17 1   
    36    16    36 1   
    37    17    18 2   
    38    18    20 1   
    39    20    35 1   
@<TRIPOS>SUBSTRUCTURE
     1 793         1 TEMP              0 ****  ****    0 ROOT
