@<TRIPOS>MOLECULE
794
   36    38     1     0     0
SMALL
No Charge or Current Charge


@<TRIPOS>ATOM
      1 O35          2.6890    -1.9800     1.4000 o          1 794      -0.701500
      2 C30          2.3190    -0.9860     0.7750 c          1 794       0.675000
      3 O36          2.8030     0.1300     0.9550 o          1 794      -0.701500
      4 C19          1.2050    -1.1800    -0.3910 c          1 794       0.492100
      5 O34          1.3000    -2.0990    -1.2160 o          1 794      -0.602100
      6 N18          0.1040    -0.2780    -0.4180 n          1 794      -0.068000
      7 C20         -0.7680    -0.1290    -1.5710 ca         1 794      -0.009000
      8 C21         -2.1620    -0.0450    -1.3440 ca         1 794      -0.153000
      9 C22         -3.0680     0.0550    -2.4090 ca         1 794      -0.150000
     10 C23         -2.5970     0.0820    -3.7260 ca         1 794      -0.164000
     11 C24         -1.2180     0.0300    -3.9750 ca         1 794      -0.099000
     12 C25         -0.2860    -0.0650    -2.9140 ca         1 794      -0.103600
     13 C31          1.1890     0.0150    -3.2580 c          1 794       0.725600
     14 O32          1.8900     0.7910    -2.6230 o          1 794      -0.715500
     15 O33          1.5890    -0.5940    -4.2420 o          1 794      -0.715500
     16 C11         -0.2410     0.5370     0.7240 ca         1 794       0.054000
     17 C12         -0.3800     1.9270     0.5200 ca         1 794      -0.101000
     18 C13         -0.6630     2.7890     1.5890 ca         1 794      -0.089000
     19 C14         -0.8250     2.2700     2.8800 ca         1 794      -0.156000
     20 C2          -0.7350     0.8850     3.1020 ca         1 794      -0.028000
     21 C1          -0.4570     0.0020     2.0270 ca         1 794      -0.036000
     22 C6          -0.4620    -1.3920     2.2820 ca         1 794      -0.029000
     23 C5          -0.6790    -1.8820     3.5810 ca         1 794      -0.155000
     24 C4          -0.9080    -0.9960     4.6420 ca         1 794      -0.122000
     25 C3          -0.9440     0.3850     4.4010 ca         1 794      -0.128000
     26 H21         -2.5570    -0.0890    -0.3320 ha         1 794       0.094000
     27 H22         -4.1370     0.1030    -2.2130 ha         1 794       0.069000
     28 H23         -3.2970     0.1600    -4.5540 ha         1 794       0.069000
     29 H24         -0.8650     0.0890    -5.0020 ha         1 794       0.110000
     30 H12         -0.2350     2.3450    -0.4740 ha         1 794       0.172000
     31 H13         -0.7480     3.8590     1.4180 ha         1 794       0.089000
     32 H14         -1.0410     2.9450     3.7050 ha         1 794       0.079000
     33 H6          -0.3220    -2.1130     1.4830 ha         1 794       0.144000
     34 H5          -0.6740    -2.9550     3.7620 ha         1 794       0.092000
     35 H4          -1.0760    -1.3790     5.6460 ha         1 794       0.078000
     36 H3          -1.1470     1.0660     5.2240 ha         1 794       0.082000
@<TRIPOS>BOND
     1     1     2 1   
     2     2     3 1   
     3     2     4 1   
     4     4     5 2   
     5     4     6 1   
     6     6     7 1   
     7     6    16 1   
     8     7     8 ar  
     9     7    12 ar  
    10     8     9 ar  
    11     8    26 1   
    12     9    10 ar  
    13     9    27 1   
    14    10    11 ar  
    15    10    28 1   
    16    11    12 ar  
    17    11    29 1   
    18    12    13 1   
    19    13    14 1   
    20    13    15 1   
    21    16    17 ar  
    22    16    21 ar  
    23    17    18 ar  
    24    17    30 1   
    25    18    19 ar  
    26    18    31 1   
    27    19    20 ar  
    28    19    32 1   
    29    20    21 ar  
    30    20    25 ar  
    31    21    22 ar  
    32    22    23 ar  
    33    22    33 1   
    34    23    24 ar  
    35    23    34 1   
    36    24    25 ar  
    37    24    35 1   
    38    25    36 1   
@<TRIPOS>SUBSTRUCTURE
     1 794         1 TEMP              0 ****  ****    0 ROOT
