@<TRIPOS>MOLECULE
794
   36    38     1     0     0
SMALL
bcc


@<TRIPOS>ATOM
      1 O35          2.4970    -2.0640     1.2790 o          1 794      -0.806800
      2 C30          2.3250    -1.0010     0.6610 c          1 794       0.885600
      3 O36          2.9030     0.0860     0.7940 o          1 794      -0.806800
      4 C19          1.2990    -1.0800    -0.4820 c          1 794       0.559100
      5 O34          1.4720    -1.8430    -1.4200 o          1 794      -0.602100
      6 N18          0.2010    -0.2780    -0.4010 n          1 794      -0.320200
      7 C20         -0.7400    -0.2350    -1.4680 ca         1 794       0.083600
      8 C21         -2.0630    -0.5560    -1.1780 ca         1 794      -0.171000
      9 C22         -3.0310    -0.5330    -2.1700 ca         1 794      -0.168000
     10 C23         -2.6670    -0.2260    -3.4730 ca         1 794      -0.182000
     11 C24         -1.3420     0.0650    -3.7620 ca         1 794      -0.117000
     12 C25         -0.3620     0.0960    -2.7710 ca         1 794      -0.103600
     13 C31          1.0430     0.5300    -3.1610 c          1 794       0.936200
     14 O32          1.6240     1.3090    -2.3840 o          1 794      -0.820800
     15 O33          1.4640     0.1030    -4.2520 o          1 794      -0.820800
     16 C11         -0.0270     0.5890     0.7010 ca         1 794       0.146600
     17 C12          0.1120     1.9390     0.5240 ca         1 794      -0.119000
     18 C13         -0.1590     2.8280     1.5790 ca         1 794      -0.107000
     19 C14         -0.5550     2.3530     2.8000 ca         1 794      -0.174000
     20 C2          -0.7170     0.9660     3.0110 ca         1 794      -0.028000
     21 C1          -0.4620     0.0600     1.9450 ca         1 794      -0.036000
     22 C6          -0.6660    -1.3240     2.1670 ca         1 794      -0.047000
     23 C5          -1.0980    -1.7810     3.3810 ca         1 794      -0.173000
     24 C4          -1.3370    -0.8840     4.4430 ca         1 794      -0.140000
     25 C3          -1.1510     0.4580     4.2600 ca         1 794      -0.146000
     26 H21         -2.3380    -0.8280    -0.1660 ha         1 794       0.112000
     27 H22         -4.0590    -0.7700    -1.9260 ha         1 794       0.087000
     28 H23         -3.4080    -0.2180    -4.2610 ha         1 794       0.087000
     29 H24         -1.0560     0.2930    -4.7810 ha         1 794       0.128000
     30 H12          0.4550     2.3000    -0.4350 ha         1 794       0.190000
     31 H13         -0.0400     3.8920     1.4210 ha         1 794       0.107000
     32 H14         -0.7560     3.0360     3.6160 ha         1 794       0.097000
     33 H6          -0.4940    -2.0280     1.3650 ha         1 794       0.162000
     34 H5          -1.2570    -2.8410     3.5320 ha         1 794       0.110000
     35 H4          -1.6740    -1.2620     5.3990 ha         1 794       0.096000
     36 H3          -1.3390     1.1530     5.0690 ha         1 794       0.100000
@<TRIPOS>BOND
     1     1     2 1   
     2     2     3 1   
     3     2     4 1   
     4     4     5 2   
     5     4     6 1   
     6     6     7 1   
     7     6    16 1   
     8     7     8 ar  
     9     7    12 ar  
    10     8     9 ar  
    11     8    26 1   
    12     9    10 ar  
    13     9    27 1   
    14    10    11 ar  
    15    10    28 1   
    16    11    12 ar  
    17    11    29 1   
    18    12    13 1   
    19    13    14 1   
    20    13    15 1   
    21    16    17 ar  
    22    16    21 ar  
    23    17    18 ar  
    24    17    30 1   
    25    18    19 ar  
    26    18    31 1   
    27    19    20 ar  
    28    19    32 1   
    29    20    21 ar  
    30    20    25 ar  
    31    21    22 ar  
    32    22    23 ar  
    33    22    33 1   
    34    23    24 ar  
    35    23    34 1   
    36    24    25 ar  
    37    24    35 1   
    38    25    36 1   
@<TRIPOS>SUBSTRUCTURE
     1 794         1 TEMP              0 ****  ****    0 ROOT
