@<TRIPOS>MOLECULE
795
   19    20     1     0     0
SMALL
No Charge or Current Charge


@<TRIPOS>ATOM
      1 C1           1.3860    -0.0660     0.0170 ca         1 795      -0.191500
      2 C2           2.2780     1.0310     0.0200 ca         1 795      -0.061000
      3 C3           3.6580     0.7730     0.0120 ca         1 795      -0.165000
      4 C4           4.1100    -0.5550     0.0010 ca         1 795       0.350900
      5 N5           3.2690    -1.6130    -0.0020 nb         1 795      -0.666000
      6 C6           1.9360    -1.3650     0.0060 ca         1 795       0.380900
      7 C7          -0.0690     0.1110     0.0250 cc         1 795       0.492900
      8 S8          -0.8110     1.6940     0.0380 ss         1 795       0.005600
      9 C9          -2.3610     0.9040     0.0400 cc         1 795      -0.208000
     10 C10         -2.2350    -0.4700     0.0310 cd         1 795       0.179500
     11 N11         -0.9110    -0.9170     0.0230 nd         1 795      -0.622000
     12 C12         -3.4570    -1.3400     0.0320 c          1 795       0.506400
     13 O13         -4.6170    -0.9300     0.0400 o          1 795      -0.512100
     14 H2           1.9260     2.0610     0.0290 ha         1 795       0.121000
     15 H3           4.3750     1.5900     0.0140 ha         1 795       0.128000
     16 H4           5.1760    -0.7790    -0.0050 h4         1 795       0.023100
     17 H6           1.2990    -2.2490     0.0030 h4         1 795       0.043100
     18 H9          -3.2650     1.4990     0.0480 h4         1 795       0.179000
     19 H12         -3.2460    -2.4320     0.0240 h4         1 795       0.017200
@<TRIPOS>BOND
     1     1     2 ar  
     2     1     6 ar  
     3     1     7 1   
     4     2     3 ar  
     5     2    14 1   
     6     3     4 ar  
     7     3    15 1   
     8     4     5 ar  
     9     4    16 1   
    10     5     6 ar  
    11     6    17 1   
    12     7     8 1   
    13     7    11 2   
    14     8     9 1   
    15     9    10 2   
    16     9    18 1   
    17    10    11 1   
    18    10    12 1   
    19    12    13 2   
    20    12    19 1   
@<TRIPOS>SUBSTRUCTURE
     1 795         1 TEMP              0 ****  ****    0 ROOT
