@<TRIPOS>MOLECULE
795
   19    20     1     0     0
SMALL
abcg2


@<TRIPOS>ATOM
      1 C1           1.3650    -0.0660     0.0220 ca         1 795      -0.191500
      2 C2           2.2570     1.0030     0.0020 ca         1 795      -0.061000
      3 C3           3.6160     0.7420    -0.0070 ca         1 795      -0.165000
      4 C4           4.0390    -0.5780     0.0030 ca         1 795       0.350900
      5 N5           3.1990    -1.6080     0.0220 nb         1 795      -0.666000
      6 C6           1.9010    -1.3560     0.0310 ca         1 795       0.380900
      7 C7          -0.0830     0.1150     0.0320 cc         1 795       0.492900
      8 S8          -0.8230     1.6900     0.0820 ss         1 795       0.005600
      9 C9          -2.3560     0.9630     0.0680 cc         1 795      -0.208000
     10 C10         -2.2200    -0.3960     0.0290 cd         1 795       0.179500
     11 N11         -0.9380    -0.8560     0.0090 nd         1 795      -0.622000
     12 C12         -3.3290    -1.3560     0.0060 c          1 795       0.506400
     13 O13         -4.4940    -1.0370     0.0200 o          1 795      -0.512100
     14 H2           1.9100     2.0300    -0.0070 ha         1 795       0.121000
     15 H3           4.3360     1.5480    -0.0220 ha         1 795       0.128000
     16 H4           5.0970    -0.8130    -0.0040 h4         1 795       0.023100
     17 H6           1.2380    -2.2140     0.0480 h4         1 795       0.043100
     18 H9          -3.2630     1.5460     0.0890 h4         1 795       0.179000
     19 H12         -3.0110    -2.4100    -0.0260 h4         1 795       0.017200
@<TRIPOS>BOND
     1     1     2 ar  
     2     1     6 ar  
     3     1     7 1   
     4     2     3 ar  
     5     2    14 1   
     6     3     4 ar  
     7     3    15 1   
     8     4     5 ar  
     9     4    16 1   
    10     5     6 ar  
    11     6    17 1   
    12     7     8 1   
    13     7    11 2   
    14     8     9 1   
    15     9    10 2   
    16     9    18 1   
    17    10    11 1   
    18    10    12 1   
    19    12    13 2   
    20    12    19 1   
@<TRIPOS>SUBSTRUCTURE
     1 795         1 TEMP              0 ****  ****    0 ROOT
