@<TRIPOS>MOLECULE
797
   32    35     1     0     0
SMALL
abcg2


@<TRIPOS>ATOM
      1 C1          -0.2850    -0.1700     0.2500 ca         1 797      -0.133900
      2 C2          -1.2890    -0.9410    -0.2830 ca         1 797      -0.039000
      3 C3          -2.6270    -0.4980    -0.2740 ca         1 797      -0.079000
      4 C4          -2.9450     0.7620     0.2960 ca         1 797       0.014000
      5 C5          -1.8940     1.5360     0.8440 ca         1 797      -0.112000
      6 C6          -0.6060     1.0860     0.8210 ca         1 797      -0.079000
      7 C10         -3.6760    -1.2740    -0.8180 ca         1 797      -0.049000
      8 C11         -4.9660    -0.8290    -0.7970 ca         1 797      -0.190000
      9 C12         -5.2770     0.4290    -0.2290 ca         1 797       0.148100
     10 C13         -4.2810     1.2070     0.3070 ca         1 797      -0.155000
     11 O17         -6.5400     0.8920    -0.1960 oh         1 797      -0.532100
     12 C18          1.1020    -0.6350     0.2500 cc         1 797       0.451500
     13 C19          2.2990     0.1310     0.0650 ca         1 797      -0.280900
     14 C20          3.3000    -0.8230     0.1560 ca         1 797       0.118100
     15 O21          2.7530    -2.0260     0.3640 os         1 797      -0.113100
     16 N22          1.3870    -1.8890     0.4250 nd         1 797      -0.297700
     17 C23          2.6420     1.4600    -0.1960 ca         1 797       0.004000
     18 C24          3.9730     1.7780    -0.3240 ca         1 797      -0.175000
     19 C25          4.9720     0.7890    -0.2030 ca         1 797       0.188100
     20 C26          4.6520    -0.5390     0.0330 ca         1 797      -0.231000
     21 O30          6.2420     1.2090    -0.3370 oh         1 797      -0.526100
     22 H2          -1.0550    -1.8980    -0.7330 ha         1 797       0.128000
     23 H5          -2.1220     2.4950     1.2920 ha         1 797       0.119000
     24 H6           0.1730     1.6870     1.2730 ha         1 797       0.117000
     25 H10         -3.4500    -2.2380    -1.2560 ha         1 797       0.118000
     26 H11         -5.7510    -1.4460    -1.2170 ha         1 797       0.115000
     27 H13         -4.5240     2.1700     0.7390 ha         1 797       0.131000
     28 H17         -7.1460     0.2630    -0.5960 ho         1 797       0.467000
     29 H23          1.8910     2.2300    -0.3040 ha         1 797       0.128000
     30 H24          4.2730     2.7980    -0.5230 ha         1 797       0.135000
     31 H26          5.4040    -1.3120     0.1150 ha         1 797       0.138000
     32 H30          6.8560     0.4830    -0.1910 ho         1 797       0.471000
@<TRIPOS>BOND
     1     1     2 ar  
     2     1     6 ar  
     3     1    12 1   
     4     2     3 ar  
     5     2    22 1   
     6     3     4 ar  
     7     3     7 ar  
     8     4     5 ar  
     9     4    10 ar  
    10     5     6 ar  
    11     5    23 1   
    12     6    24 1   
    13     7     8 ar  
    14     7    25 1   
    15     8     9 ar  
    16     8    26 1   
    17     9    10 ar  
    18     9    11 1   
    19    10    27 1   
    20    11    28 1   
    21    12    13 1   
    22    12    16 2   
    23    13    14 ar  
    24    13    17 ar  
    25    14    15 1   
    26    14    20 ar  
    27    15    16 1   
    28    17    18 ar  
    29    17    29 1   
    30    18    19 ar  
    31    18    30 1   
    32    19    20 ar  
    33    19    21 1   
    34    20    31 1   
    35    21    32 1   
@<TRIPOS>SUBSTRUCTURE
     1 797         1 TEMP              0 ****  ****    0 ROOT
