@<TRIPOS>MOLECULE
797
   32    35     1     0     0
SMALL
No Charge or Current Charge


@<TRIPOS>ATOM
      1 C1          -0.2480    -0.1900     0.2410 ca         1 797      -0.133900
      2 C2          -1.3020    -0.9670    -0.2890 ca         1 797      -0.039000
      3 C3          -2.6260    -0.4880    -0.2740 ca         1 797      -0.079000
      4 C4          -2.9120     0.7690     0.2970 ca         1 797       0.014000
      5 C5          -1.8730     1.5320     0.8580 ca         1 797      -0.112000
      6 C6          -0.5530     1.0510     0.8400 ca         1 797      -0.079000
      7 C10         -3.6670    -1.2600    -0.8250 ca         1 797      -0.049000
      8 C11         -4.9880    -0.7760    -0.8080 ca         1 797      -0.190000
      9 C12         -5.2690     0.4770    -0.2390 ca         1 797       0.148100
     10 C13         -4.2350     1.2480     0.3130 ca         1 797      -0.155000
     11 O17         -6.5470     0.9490    -0.2190 oh         1 797      -0.532100
     12 C18          1.1190    -0.7240     0.2620 cc         1 797       0.451500
     13 C19          2.3180     0.0460     0.0900 ca         1 797      -0.280900
     14 C20          3.3310    -0.8540     0.2010 ca         1 797       0.118100
     15 O21          2.8580    -2.1210     0.4140 os         1 797      -0.113100
     16 N22          1.4020    -2.0190     0.4290 nd         1 797      -0.297700
     17 C23          2.5530     1.3970    -0.2130 ca         1 797       0.004000
     18 C24          3.8960     1.8050    -0.3500 ca         1 797      -0.175000
     19 C25          4.9490     0.8740    -0.2070 ca         1 797       0.188100
     20 C26          4.6720    -0.4800     0.0630 ca         1 797      -0.231000
     21 O30          6.2370     1.2900    -0.3500 oh         1 797      -0.526100
     22 H2          -1.0900    -1.9410    -0.7270 ha         1 797       0.128000
     23 H5          -2.0880     2.4940     1.3180 ha         1 797       0.119000
     24 H6           0.2280     1.6410     1.3140 ha         1 797       0.117000
     25 H10         -3.4560    -2.2320    -1.2670 ha         1 797       0.118000
     26 H11         -5.7840    -1.3790    -1.2370 ha         1 797       0.115000
     27 H13         -4.4630     2.2150     0.7540 ha         1 797       0.131000
     28 H17         -7.1290     0.2820    -0.6440 ho         1 797       0.467000
     29 H23          1.7410     2.1080    -0.3510 ha         1 797       0.128000
     30 H24          4.1230     2.8440    -0.5760 ha         1 797       0.135000
     31 H26          5.4620    -1.2190     0.1560 ha         1 797       0.138000
     32 H30          6.8250     0.5160    -0.2220 ho         1 797       0.471000
@<TRIPOS>BOND
     1     1     2 ar  
     2     1     6 ar  
     3     1    12 1   
     4     2     3 ar  
     5     2    22 1   
     6     3     4 ar  
     7     3     7 ar  
     8     4     5 ar  
     9     4    10 ar  
    10     5     6 ar  
    11     5    23 1   
    12     6    24 1   
    13     7     8 ar  
    14     7    25 1   
    15     8     9 ar  
    16     8    26 1   
    17     9    10 ar  
    18     9    11 1   
    19    10    27 1   
    20    11    28 1   
    21    12    13 1   
    22    12    16 2   
    23    13    14 ar  
    24    13    17 ar  
    25    14    15 1   
    26    14    20 ar  
    27    15    16 1   
    28    17    18 ar  
    29    17    29 1   
    30    18    19 ar  
    31    18    30 1   
    32    19    20 ar  
    33    19    21 1   
    34    20    31 1   
    35    21    32 1   
@<TRIPOS>SUBSTRUCTURE
     1 797         1 TEMP              0 ****  ****    0 ROOT
