@<TRIPOS>MOLECULE
798
   47    50     1     0     0
SMALL
bcc


@<TRIPOS>ATOM
      1 O8          -0.8730     3.6800    -0.1490 o          1 798      -0.526100
      2 C7          -0.7130     2.4730    -0.1120 c          1 798       0.600300
      3 C9          -1.9010     1.5760    -0.0810 ca         1 798      -0.165600
      4 C10         -3.0430     1.9860     0.6080 ca         1 798      -0.087500
      5 C11         -4.1790     1.2010     0.6150 ca         1 798      -0.132000
      6 C12         -4.2240    -0.0080    -0.0840 ca         1 798       0.012000
      7 C15         -5.4260    -0.8470    -0.0730 cc         1 798      -0.064000
      8 C16         -6.2950    -0.9360     0.9800 cd         1 798      -0.113100
      9 S17         -7.5800    -2.0130     0.6680 ss         1 798      -0.066800
     10 C18         -6.9790    -2.3650    -0.8950 cd         1 798      -0.124100
     11 C19         -5.8330    -1.6840    -1.1560 cc         1 798      -0.135000
     12 C13         -3.0880    -0.3990    -0.7930 ca         1 798      -0.132000
     13 C14         -1.9410     0.3760    -0.7860 ca         1 798      -0.087500
     14 C6           0.6400     1.8830    -0.0980 ca         1 798      -0.215600
     15 C5           1.7210     2.6340    -0.5780 ca         1 798      -0.041500
     16 C4           3.0010     2.1350    -0.5450 ca         1 798      -0.211500
     17 C3           3.2510     0.8700     0.0010 ca         1 798       0.175100
     18 C2           2.1890     0.1220     0.5060 ca         1 798      -0.211500
     19 C1           0.9020     0.6300     0.4480 ca         1 798      -0.041500
     20 O20          4.5250     0.4720    -0.0040 os         1 798      -0.300900
     21 C21          4.8610    -0.7900     0.5320 c3         1 798       0.143400
     22 C22          6.3520    -0.9980     0.4170 c5         1 798       0.146500
     23 N23          6.8240    -1.0520    -0.9550 n7         1 798      -0.763200
     24 C24          8.1390    -1.6680    -0.8570 c5         1 798       0.135800
     25 C25          8.0900    -2.6830     0.3110 c5         1 798      -0.111400
     26 C26          6.8080    -2.3130     1.0770 c5         1 798      -0.113400
     27 H10         -3.0400     2.9220     1.1500 ha         1 798       0.142500
     28 H11         -5.0520     1.5470     1.1530 ha         1 798       0.135000
     29 H16         -6.2220    -0.4440     1.9370 h4         1 798       0.170000
     30 H18         -7.5040    -3.0460    -1.5450 h4         1 798       0.169000
     31 H19         -5.3100    -1.7480    -2.0990 ha         1 798       0.154000
     32 H13         -3.0910    -1.3320    -1.3420 ha         1 798       0.135000
     33 H14         -1.0780     0.0470    -1.3510 ha         1 798       0.142500
     34 H5           1.5460     3.6170    -0.9950 ha         1 798       0.144000
     35 H4           3.8290     2.7120    -0.9340 ha         1 798       0.144000
     36 H2           2.3460    -0.8490     0.9540 ha         1 798       0.144000
     37 H1           0.0960     0.0400     0.8640 ha         1 798       0.144000
     38 H21          4.5680    -0.8520     1.5870 h1         1 798       0.036200
     39 H21A         4.3290    -1.5890    -0.0020 h1         1 798       0.036200
     40 H22          6.8570    -0.1600     0.9120 h1         1 798       0.081700
     41 HN23         6.2130    -1.6540    -1.4960 hn         1 798       0.346800
     42 H24          8.4220    -2.1190    -1.8080 h1         1 798       0.055200
     43 H24A         8.8770    -0.8900    -0.6480 h1         1 798       0.055200
     44 H25          8.0480    -3.7090    -0.0530 hc         1 798       0.049200
     45 H25A         8.9760    -2.6090     0.9420 hc         1 798       0.049200
     46 H26          6.9680    -2.2080     2.1510 hc         1 798       0.048200
     47 H26A         6.0430    -3.0840     0.9430 hc         1 798       0.048200
@<TRIPOS>BOND
     1     1     2 2   
     2     2     3 1   
     3     2    14 1   
     4     3     4 ar  
     5     3    13 ar  
     6     4     5 ar  
     7     4    27 1   
     8     5     6 ar  
     9     5    28 1   
    10     6     7 1   
    11     6    12 ar  
    12     7     8 2   
    13     7    11 1   
    14     8     9 1   
    15     8    29 1   
    16     9    10 1   
    17    10    11 2   
    18    10    30 1   
    19    11    31 1   
    20    12    13 ar  
    21    12    32 1   
    22    13    33 1   
    23    14    15 ar  
    24    14    19 ar  
    25    15    16 ar  
    26    15    34 1   
    27    16    17 ar  
    28    16    35 1   
    29    17    18 ar  
    30    17    20 1   
    31    18    19 ar  
    32    18    36 1   
    33    19    37 1   
    34    20    21 1   
    35    21    22 1   
    36    21    38 1   
    37    21    39 1   
    38    22    23 1   
    39    22    26 1   
    40    22    40 1   
    41    23    24 1   
    42    23    41 1   
    43    24    25 1   
    44    24    42 1   
    45    24    43 1   
    46    25    26 1   
    47    25    44 1   
    48    25    45 1   
    49    26    46 1   
    50    26    47 1   
@<TRIPOS>SUBSTRUCTURE
     1 798         1 TEMP              0 ****  ****    0 ROOT
