@<TRIPOS>MOLECULE
798
   47    50     1     0     0
SMALL
No Charge or Current Charge


@<TRIPOS>ATOM
      1 O8          -0.8940     3.8220     0.2380 o          1 798      -0.526100
      2 C7          -0.7630     2.6070     0.1430 c          1 798       0.600300
      3 C9          -1.9770     1.7090     0.0600 ca         1 798      -0.165600
      4 C10         -3.1750     2.0820     0.6990 ca         1 798      -0.069500
      5 C11         -4.3170     1.2650     0.6200 ca         1 798      -0.114000
      6 C12         -4.3010     0.0530    -0.1110 ca         1 798       0.012000
      7 C15         -5.4880    -0.8270    -0.2090 cc         1 798      -0.064000
      8 C16         -6.6660    -0.4900     0.4230 cd         1 798      -0.240000
      9 S17         -7.9330    -1.7000     0.1550 ss         1 798       0.223000
     10 C18         -6.8200    -2.6590    -0.8270 cd         1 798      -0.251000
     11 C19         -5.5910    -2.0600    -0.9140 cc         1 798      -0.117000
     12 C13         -3.0990    -0.3020    -0.7630 ca         1 798      -0.114000
     13 C14         -1.9560     0.5130    -0.6850 ca         1 798      -0.069500
     14 C6           0.6160     1.9910     0.1090 ca         1 798      -0.215600
     15 C5           1.6910     2.7090    -0.4560 ca         1 798      -0.023500
     16 C4           2.9800     2.1520    -0.4810 ca         1 798      -0.193500
     17 C3           3.2200     0.8820     0.0620 ca         1 798       0.175100
     18 C2           2.1540     0.1650     0.6440 ca         1 798      -0.193500
     19 C1           0.8620     0.7190     0.6710 ca         1 798      -0.023500
     20 O20          4.5070     0.3900     0.0070 os         1 798      -0.324100
     21 C21          4.8560    -0.9040     0.5370 c3         1 798       0.166600
     22 C22          6.3780    -1.1410     0.3170 c5         1 798       0.146500
     23 N23          6.7800    -1.2770    -1.1060 n7         1 798      -0.818400
     24 C24          8.1920    -1.7250    -1.0430 c5         1 798       0.135800
     25 C25          8.3120    -2.5590     0.2680 c5         1 798      -0.111400
     26 C26          6.8860    -2.4880     0.8810 c5         1 798      -0.113400
     27 H10         -3.2240     3.0080     1.2690 ha         1 798       0.124500
     28 H11         -5.2080     1.5990     1.1380 ha         1 798       0.117000
     29 H16         -6.9030     0.3720     1.0300 h4         1 798       0.152000
     30 H18         -7.1470    -3.5920    -1.2700 h4         1 798       0.151000
     31 H19         -4.7700    -2.4940    -1.4740 ha         1 798       0.136000
     32 H13         -3.0320    -1.2140    -1.3470 ha         1 798       0.117000
     33 H14         -1.0580     0.2120    -1.2210 ha         1 798       0.124500
     34 H5           1.5270     3.6970    -0.8830 ha         1 798       0.126000
     35 H4           3.8010     2.7100    -0.9250 ha         1 798       0.126000
     36 H2           2.3070    -0.8160     1.0840 ha         1 798       0.126000
     37 H1           0.0570     0.1580     1.1440 ha         1 798       0.126000
     38 H21          4.6440    -0.9460     1.6140 h1         1 798       0.036200
     39 H21A         4.2860    -1.6980     0.0370 h1         1 798       0.036200
     40 H22          6.9160    -0.3060     0.7920 h1         1 798       0.081700
     41 HN23         6.2200    -2.0330    -1.5170 hn         1 798       0.402000
     42 H24          8.4670    -2.3100    -1.9330 h1         1 798       0.055200
     43 H24A         8.8660    -0.8570    -1.0000 h1         1 798       0.055200
     44 H25          8.6240    -3.5910     0.0760 hc         1 798       0.049200
     45 H25A         9.0580    -2.1160     0.9400 hc         1 798       0.049200
     46 H26          6.8990    -2.5080     1.9770 hc         1 798       0.048200
     47 H26A         6.2640    -3.3270     0.5450 hc         1 798       0.048200
@<TRIPOS>BOND
     1     1     2 2   
     2     2     3 1   
     3     2    14 1   
     4     3     4 ar  
     5     3    13 ar  
     6     4     5 ar  
     7     4    27 1   
     8     5     6 ar  
     9     5    28 1   
    10     6     7 1   
    11     6    12 ar  
    12     7     8 2   
    13     7    11 1   
    14     8     9 1   
    15     8    29 1   
    16     9    10 1   
    17    10    11 2   
    18    10    30 1   
    19    11    31 1   
    20    12    13 ar  
    21    12    32 1   
    22    13    33 1   
    23    14    15 ar  
    24    14    19 ar  
    25    15    16 ar  
    26    15    34 1   
    27    16    17 ar  
    28    16    35 1   
    29    17    18 ar  
    30    17    20 1   
    31    18    19 ar  
    32    18    36 1   
    33    19    37 1   
    34    20    21 1   
    35    21    22 1   
    36    21    38 1   
    37    21    39 1   
    38    22    23 1   
    39    22    26 1   
    40    22    40 1   
    41    23    24 1   
    42    23    41 1   
    43    24    25 1   
    44    24    42 1   
    45    24    43 1   
    46    25    26 1   
    47    25    44 1   
    48    25    45 1   
    49    26    46 1   
    50    26    47 1   
@<TRIPOS>SUBSTRUCTURE
     1 798         1 TEMP              0 ****  ****    0 ROOT
