@<TRIPOS>MOLECULE
79A
   38    40     1     0     0
SMALL
abcg2


@<TRIPOS>ATOM
      1 N1          -5.0810    -1.1220     3.4120 n1         1 79A      -0.421000
      2 C17         -4.8030    -0.6920     2.3810 cg         1 79A       0.311000
      3 C6          -4.4570    -0.1590     1.1020 ca         1 79A       0.034000
      4 C7          -3.1430     0.2300     0.8630 ca         1 79A      -0.120000
      5 C8          -2.8280     0.7480    -0.3840 ca         1 79A       0.124100
      6 C9          -3.7870     0.8830    -1.3750 ca         1 79A      -0.145000
      7 C10         -5.0820     0.4930    -1.0890 ca         1 79A       0.190000
      8 F1          -6.0100     0.6240    -2.0380 f          1 79A      -0.162000
      9 C5          -5.4480    -0.0340     0.1310 ca         1 79A      -0.125000
     10 O1          -1.5670     1.1970    -0.6530 os         1 79A      -0.245200
     11 C1          -0.5130     0.3490    -0.5600 ca         1 79A       0.192100
     12 C14          0.7280     0.9290    -0.3490 ca         1 79A      -0.132300
     13 C15          1.0240     2.3900    -0.1910 c5         1 79A      -0.072100
     14 C11          2.4060     2.3410     0.4290 c5         1 79A       0.149000
     15 F3           2.3080     2.2550     1.7830 f          1 79A      -0.102500
     16 F2           3.1520     3.4480     0.1790 f          1 79A      -0.102500
     17 C13          1.8760     0.1500    -0.2730 ca         1 79A       0.032700
     18 C12          3.0710     1.0600    -0.1070 c5         1 79A       0.158600
     19 O4           4.0490     0.5360     0.7250 oh         1 79A      -0.614000
     20 C4           1.7830    -1.2310    -0.4280 ca         1 79A      -0.240500
     21 S1           3.1540    -2.3730    -0.3180 sy         1 79A       1.061500
     22 C16          4.3530    -1.7970    -1.4960 c3         1 79A      -0.336100
     23 O3           3.7170    -2.3430     1.0260 o          1 79A      -0.512000
     24 O2           2.6640    -3.6620    -0.8090 o          1 79A      -0.512000
     25 C3           0.5330    -1.8040    -0.6390 ca         1 79A       0.008000
     26 C2          -0.6120    -1.0270    -0.7020 ca         1 79A      -0.183000
     27 H1          -2.3920     0.1380     1.6370 ha         1 79A       0.150000
     28 H2          -3.5290     1.2880    -2.3450 ha         1 79A       0.154000
     29 H3          -6.4690    -0.3330     0.3260 ha         1 79A       0.152000
     30 H4           1.0660     2.8890    -1.1630 hc         1 79A       0.090200
     31 H5           0.3060     2.9270     0.4300 hc         1 79A       0.090200
     32 H6           3.4590     1.2910    -1.1110 h1         1 79A       0.061700
     33 H7           4.8720     1.0180     0.5910 ho         1 79A       0.466000
     34 H8           4.7820    -0.8530    -1.1800 h1         1 79A       0.102033
     35 H9           5.1340    -2.5570    -1.5340 h1         1 79A       0.102033
     36 H10          3.8800    -1.7060    -2.4710 h1         1 79A       0.102033
     37 H11          0.4360    -2.8720    -0.7680 ha         1 79A       0.155000
     38 H12         -1.5640    -1.5090    -0.8790 ha         1 79A       0.137000
@<TRIPOS>BOND
     1     1     2 3   
     2     2     3 1   
     3     3     4 ar  
     4     3     9 ar  
     5     4     5 ar  
     6     4    27 1   
     7     5     6 ar  
     8     5    10 1   
     9     6     7 ar  
    10     6    28 1   
    11     7     8 1   
    12     7     9 ar  
    13     9    29 1   
    14    10    11 1   
    15    11    12 ar  
    16    11    26 ar  
    17    12    13 1   
    18    12    17 ar  
    19    13    14 1   
    20    13    30 1   
    21    13    31 1   
    22    14    15 1   
    23    14    16 1   
    24    14    18 1   
    25    17    18 1   
    26    17    20 ar  
    27    18    19 1   
    28    18    32 1   
    29    19    33 1   
    30    20    21 1   
    31    20    25 ar  
    32    21    22 1   
    33    21    23 2   
    34    21    24 2   
    35    22    34 1   
    36    22    35 1   
    37    22    36 1   
    38    25    26 ar  
    39    25    37 1   
    40    26    38 1   
@<TRIPOS>SUBSTRUCTURE
     1 79A         1 TEMP              0 ****  ****    0 ROOT
