@<TRIPOS>MOLECULE
79A
   38    40     1     0     0
SMALL
No Charge or Current Charge


@<TRIPOS>ATOM
      1 N1          -4.6550    -1.3050     3.4770 n1         1 79A      -0.421000
      2 C17         -4.5090    -0.7890     2.4400 cg         1 79A       0.311000
      3 C6          -4.3330    -0.1640     1.1570 ca         1 79A       0.034000
      4 C7          -3.0390     0.1310     0.6830 ca         1 79A      -0.120000
      5 C8          -2.8690     0.7400    -0.5770 ca         1 79A       0.124100
      6 C9          -3.9890     1.0730    -1.3530 ca         1 79A      -0.145000
      7 C10         -5.2760     0.7790    -0.8810 ca         1 79A       0.190000
      8 F1          -6.3530     1.0950    -1.6320 f          1 79A      -0.162000
      9 C5          -5.4540     0.1610     0.3660 ca         1 79A      -0.125000
     10 O1          -1.6160     1.0490    -1.0550 os         1 79A      -0.245200
     11 C1          -0.5160     0.2530    -0.8300 ca         1 79A       0.192100
     12 C14          0.7180     0.8410    -0.5200 ca         1 79A      -0.132300
     13 C15          0.9680     2.3270    -0.4320 c5         1 79A      -0.072100
     14 C11          2.3250     2.3520     0.3480 c5         1 79A       0.149000
     15 F3           2.0770     2.4740     1.7170 f          1 79A      -0.102500
     16 F2           3.1040     3.4440    -0.0330 f          1 79A      -0.102500
     17 C13          1.8570     0.0750    -0.2930 ca         1 79A       0.032700
     18 C12          3.0510     0.9810     0.0100 c5         1 79A       0.158600
     19 O4           3.8730     0.5290     1.0920 oh         1 79A      -0.614000
     20 C4           1.7960    -1.3430    -0.4370 ca         1 79A      -0.240500
     21 S1           3.2280    -2.4580    -0.2830 sy         1 79A       1.061500
     22 C16          4.4920    -1.7630    -1.3550 c3         1 79A      -0.336100
     23 O3           3.7480    -2.3890     1.0880 o          1 79A      -0.512000
     24 O2           2.8630    -3.7570    -0.8630 o          1 79A      -0.512000
     25 C3           0.5480    -1.9340    -0.7540 ca         1 79A       0.008000
     26 C2          -0.5980    -1.1430    -0.9430 ca         1 79A      -0.183000
     27 H1          -2.1720    -0.1060     1.2950 ha         1 79A       0.150000
     28 H2          -3.8600     1.5530    -2.3180 ha         1 79A       0.154000
     29 H3          -6.4600    -0.0590     0.7160 ha         1 79A       0.152000
     30 H4           1.0640     2.7760    -1.4270 hc         1 79A       0.090200
     31 H5           0.1770     2.8680     0.0990 hc         1 79A       0.090200
     32 H6           3.6530     1.0980    -0.9020 h1         1 79A       0.061700
     33 H7           4.4940     1.2590     1.3080 ho         1 79A       0.466000
     34 H8           4.8600    -0.8300    -0.9220 h1         1 79A       0.102033
     35 H9           5.3080    -2.4900    -1.4240 h1         1 79A       0.102033
     36 H10          4.0480    -1.5900    -2.3410 h1         1 79A       0.102033
     37 H11          0.4560    -3.0130    -0.8660 ha         1 79A       0.155000
     38 H12         -1.5420    -1.6160    -1.2010 ha         1 79A       0.137000
@<TRIPOS>BOND
     1     1     2 3   
     2     2     3 1   
     3     3     4 ar  
     4     3     9 ar  
     5     4     5 ar  
     6     4    27 1   
     7     5     6 ar  
     8     5    10 1   
     9     6     7 ar  
    10     6    28 1   
    11     7     8 1   
    12     7     9 ar  
    13     9    29 1   
    14    10    11 1   
    15    11    12 ar  
    16    11    26 ar  
    17    12    13 1   
    18    12    17 ar  
    19    13    14 1   
    20    13    30 1   
    21    13    31 1   
    22    14    15 1   
    23    14    16 1   
    24    14    18 1   
    25    17    18 1   
    26    17    20 ar  
    27    18    19 1   
    28    18    32 1   
    29    19    33 1   
    30    20    21 1   
    31    20    25 ar  
    32    21    22 1   
    33    21    23 2   
    34    21    24 2   
    35    22    34 1   
    36    22    35 1   
    37    22    36 1   
    38    25    26 ar  
    39    25    37 1   
    40    26    38 1   
@<TRIPOS>SUBSTRUCTURE
     1 79A         1 TEMP              0 ****  ****    0 ROOT
