@<TRIPOS>MOLECULE
79C
   74    78     1     0     0
SMALL
No Charge or Current Charge


@<TRIPOS>ATOM
      1 C4           2.8910    -2.1820    -0.0690 ca         1 79C      -0.121000
      2 C5           3.6310    -0.9810    -0.1660 ca         1 79C      -0.143600
      3 C6           2.9300     0.2470    -0.1270 ca         1 79C      -0.092000
      4 C7           1.5300     0.2710    -0.0070 ca         1 79C      -0.124000
      5 C8           0.7910    -0.9240     0.0680 ca         1 79C       0.309000
      6 C10         -1.6490    -0.0610    -0.0940 ca         1 79C       0.393900
      7 C13         -3.7410     1.5300    -0.7120 ca         1 79C      -0.233000
      8 C21         -5.7950     0.5880     1.5520 c3         1 79C       0.162800
      9 C24         -5.2620    -1.4970    -1.6960 c5         1 79C      -0.086400
     10 C26         -7.0720    -3.0050    -1.0080 c5         1 79C      -0.078400
     11 C28         -3.8970     0.3250     0.0050 ca         1 79C       0.367900
     12 C3           1.4820    -2.1620     0.0530 ca         1 79C       0.081100
     13 N9          -0.6100    -0.9380     0.2000 nu         1 79C      -0.912900
     14 N11         -1.3710     1.0880    -0.7330 nb         1 79C      -0.225000
     15 C12         -2.4120     1.8920    -1.0150 ca         1 79C       0.152900
     16 N14         -4.8070     2.5050    -0.8240 n          1 79C      -0.204400
     17 C16         -5.7580     2.7790     0.2050 c          1 79C       0.520000
     18 O17         -6.6770     3.5720     0.0060 o          1 79C      -0.504000
     19 C18         -5.5710     2.1200     1.6020 c3         1 79C       0.074000
     20 F19         -4.3350     2.3870     2.0950 f          1 79C      -0.097500
     21 F20         -6.4440     2.6420     2.5000 f          1 79C      -0.097500
     22 N22         -5.1710    -0.1170     0.4060 nh         1 79C      -0.774300
     23 C23         -6.0710    -0.8460    -0.5430 c5         1 79C       0.210500
     24 C25         -6.3420    -2.4480    -2.2750 c5         1 79C      -0.078400
     25 C27         -6.5610    -2.1280     0.1780 c5         1 79C      -0.086400
     26 N29         -2.8610    -0.4810     0.2960 nb         1 79C      -0.215000
     27 C30          5.1440    -1.0450    -0.2970 c          1 79C       0.615700
     28 O31          5.7530    -2.1060    -0.3190 o          1 79C      -0.608100
     29 N32          5.8080     0.1590    -0.3930 ns         1 79C      -0.496900
     30 C33          7.2620     0.3280    -0.5030 c6         1 79C       0.110700
     31 C34          7.5990     1.6940    -1.1450 c6         1 79C      -0.092900
     32 C35          9.1280     1.9130    -1.2080 c6         1 79C       0.167800
     33 N36          9.7450     1.8140     0.1430 n3         1 79C      -0.718600
     34 C37         11.1910     2.1240     0.1250 c3         1 79C       0.153100
     35 C38          9.4560     0.5020     0.7830 c6         1 79C       0.167800
     36 C39          7.9340     0.2500     0.8890 c6         1 79C      -0.092900
     37 H1           3.4260    -3.1270    -0.0890 ha         1 79C       0.141000
     38 H2           3.4530     1.1980    -0.1820 ha         1 79C       0.117000
     39 H3           1.0320     1.2310     0.0470 ha         1 79C       0.153000
     40 H4          -5.9010     3.3060    -2.4570 h1         1 79C       0.050367
     41 H5          -4.5730     4.3420    -1.8520 h1         1 79C       0.050367
     42 H6          -4.2120     2.8890    -2.8300 h1         1 79C       0.050367
     43 H7          -5.4270     0.1510     2.4920 h1         1 79C       0.088200
     44 H8          -6.8810     0.4190     1.5380 h1         1 79C       0.088200
     45 H9          -4.9100    -0.7660    -2.4330 hc         1 79C       0.055450
     46 H10         -4.3940    -2.0650    -1.3420 hc         1 79C       0.055450
     47 H11         -8.1600    -2.9280    -1.1220 hc         1 79C       0.045200
     48 H12         -6.8460    -4.0650    -0.8400 hc         1 79C       0.045200
     49 H13          2.0470    -4.7530     0.9880 h1         1 79C       0.046033
     50 H14          0.5770    -5.4170     0.2470 h1         1 79C       0.046033
     51 H15          1.8870    -4.8140    -0.7880 h1         1 79C       0.046033
     52 H16         -0.9510    -1.8640     0.4620 hn         1 79C       0.533000
     53 H17         -2.1720     2.8470    -1.4790 h4         1 79C       0.033100
     54 H18         -6.8970    -0.2200    -0.9120 h1         1 79C       0.038700
     55 H19         -7.0410    -1.8990    -2.9170 hc         1 79C       0.045200
     56 H20         -5.9040    -3.2440    -2.8880 hc         1 79C       0.045200
     57 H21         -7.3470    -1.9240     0.9130 hc         1 79C       0.055450
     58 H22         -5.7430    -2.6300     0.7090 hc         1 79C       0.055450
     59 H23          5.2350     0.9910    -0.3700 hn         1 79C       0.313500
     60 H24          7.6640    -0.4730    -1.1430 h1         1 79C       0.074700
     61 H25          7.1790     1.7460    -2.1580 hc         1 79C       0.053700
     62 H26          7.1380     2.5080    -0.5680 hc         1 79C       0.053700
     63 H27          9.5710     1.1670    -1.8850 h1         1 79C       0.033950
     64 H28          9.3250     2.9030    -1.6440 h1         1 79C       0.033950
     65 H30         11.3680     3.1230    -0.2940 h1         1 79C       0.031033
     66 H31         11.6040     2.1060     1.1420 h1         1 79C       0.031033
     67 H32         11.7410     1.3930    -0.4830 h1         1 79C       0.031033
     68 H33          9.9160    -0.3140     0.2050 h1         1 79C       0.033950
     69 H34          9.8890     0.4680     1.7930 h1         1 79C       0.033950
     70 H35          7.4860     0.9910     1.5660 hc         1 79C       0.053700
     71 H36          7.7560    -0.7360     1.3390 hc         1 79C       0.053700
     72 O2           0.7400    -3.3340     0.1610 os         1 79C      -0.363100
     73 C15         -4.8760     3.3100    -2.0640 c3         1 79C       0.091300
     74 C1           1.3460    -4.6410     0.1510 c3         1 79C       0.153900
@<TRIPOS>BOND
     1     1     2 ar  
     2     1    12 ar  
     3     1    37 1   
     4     2     3 ar  
     5     2    27 1   
     6     3     4 ar  
     7     3    38 1   
     8     4     5 ar  
     9     4    39 1   
    10     5    12 ar  
    11     5    13 1   
    12     6    13 1   
    13     6    14 ar  
    14     6    26 ar  
    15     7    11 ar  
    16     7    15 ar  
    17     7    16 1   
    18     8    19 1   
    19     8    22 1   
    20     8    43 1   
    21     8    44 1   
    22     9    23 1   
    23     9    24 1   
    24     9    45 1   
    25     9    46 1   
    26    10    24 1   
    27    10    25 1   
    28    10    47 1   
    29    10    48 1   
    30    11    22 1   
    31    11    26 ar  
    32    12    72 1   
    33    13    52 1   
    34    14    15 ar  
    35    15    53 1   
    36    16    17 1   
    37    16    73 1   
    38    17    18 2   
    39    17    19 1   
    40    19    20 1   
    41    19    21 1   
    42    22    23 1   
    43    23    25 1   
    44    23    54 1   
    45    24    55 1   
    46    24    56 1   
    47    25    57 1   
    48    25    58 1   
    49    27    28 2   
    50    27    29 1   
    51    29    30 1   
    52    29    59 1   
    53    30    31 1   
    54    30    36 1   
    55    30    60 1   
    56    31    32 1   
    57    31    61 1   
    58    31    62 1   
    59    32    33 1   
    60    32    63 1   
    61    32    64 1   
    62    33    34 1   
    63    33    35 1   
    64    34    65 1   
    65    34    66 1   
    66    34    67 1   
    67    35    36 1   
    68    35    68 1   
    69    35    69 1   
    70    36    70 1   
    71    36    71 1   
    72    40    73 1   
    73    41    73 1   
    74    42    73 1   
    75    49    74 1   
    76    50    74 1   
    77    51    74 1   
    78    72    74 1   
@<TRIPOS>SUBSTRUCTURE
     1 79C         1 TEMP              0 ****  ****    0 ROOT
