@<TRIPOS>MOLECULE
79C
   74    78     1     0     0
SMALL
bcc


@<TRIPOS>ATOM
      1 C4           3.0210    -2.0080     0.0020 ca         1 79C      -0.139000
      2 C5           3.6580    -0.8270    -0.3870 ca         1 79C      -0.143600
      3 C6           2.8930     0.3060    -0.6110 ca         1 79C      -0.110000
      4 C7           1.5140     0.2790    -0.4410 ca         1 79C      -0.142000
      5 C8           0.8710    -0.8840    -0.0340 ca         1 79C       0.170600
      6 C10         -1.5240    -0.1650    -0.0420 ca         1 79C       0.919900
      7 C13         -3.6540     1.3820    -0.4580 ca         1 79C      -0.271000
      8 C21         -5.5800     0.3140     1.6870 c3         1 79C       0.162800
      9 C24         -5.2620    -1.5080    -1.6670 c5         1 79C      -0.086400
     10 C26         -7.5530    -2.3410    -1.3790 c5         1 79C      -0.078400
     11 C28         -3.7710     0.1160     0.1290 ca         1 79C       0.696200
     12 C3           1.6540    -2.0420     0.1910 ca         1 79C       0.081100
     13 N9          -0.4900    -1.0170     0.1910 nu         1 79C      -0.719300
     14 N11         -1.3130     1.0160    -0.6080 nb         1 79C      -0.751000
     15 C12         -2.3750     1.7800    -0.8010 ca         1 79C       0.481200
     16 N14         -4.7770     2.1970    -0.7020 n          1 79C      -0.364000
     17 C16         -5.7370     2.4210     0.2210 c          1 79C       0.662500
     18 O17         -6.7580     3.0320    -0.0140 o          1 79C      -0.579500
     19 C18         -5.4940     1.8370     1.6240 c3         1 79C       0.316600
     20 F19         -4.2730     2.2670     2.0640 f          1 79C      -0.218800
     21 F20         -6.4010     2.3750     2.4690 f          1 79C      -0.218800
     22 N22         -5.0240    -0.3810     0.5440 nh         1 79C      -0.774300
     23 C23         -5.9490    -0.7560    -0.5290 c5         1 79C       0.210500
     24 C25         -6.4230    -2.1680    -2.4200 c5         1 79C      -0.078400
     25 C27         -7.0030    -1.7630    -0.0690 c5         1 79C      -0.086400
     26 N29         -2.7160    -0.6360     0.3410 nb         1 79C      -0.741000
     27 C30          5.1370    -0.8660    -0.5810 c          1 79C       0.682700
     28 O31          5.7110    -1.9120    -0.8620 o          1 79C      -0.608100
     29 N32          5.7820     0.3040    -0.4330 ns         1 79C      -0.563900
     30 C33          7.2180     0.4440    -0.5650 c6         1 79C       0.110700
     31 C34          7.5700     1.8790    -0.9350 c6         1 79C      -0.092900
     32 C35          9.0780     2.0540    -1.0250 c6         1 79C       0.167800
     33 N36          9.7290     1.6760     0.2150 n3         1 79C      -0.718600
     34 C37         11.1500     1.9360     0.1630 c3         1 79C       0.153100
     35 C38          9.4550     0.2900     0.5460 c6         1 79C       0.167800
     36 C39          7.9630     0.0480     0.7080 c6         1 79C      -0.092900
     37 H1           3.6200    -2.8940     0.1610 ha         1 79C       0.159000
     38 H2           3.3440     1.2290    -0.9510 ha         1 79C       0.135000
     39 H3           0.9390     1.1690    -0.6370 ha         1 79C       0.171000
     40 H4          -5.9140     2.2870    -2.4750 h1         1 79C       0.050367
     41 H5          -5.1020     3.8000    -2.0390 h1         1 79C       0.050367
     42 H6          -4.1700     2.4440    -2.6800 h1         1 79C       0.050367
     43 H7          -5.0850    -0.0050     2.6100 h1         1 79C       0.088200
     44 H8          -6.6300     0.0400     1.7840 h1         1 79C       0.088200
     45 H9          -4.6570    -0.8690    -2.3120 hc         1 79C       0.055450
     46 H10         -4.6010    -2.2650    -1.2360 hc         1 79C       0.055450
     47 H11         -8.4460    -1.7980    -1.6910 hc         1 79C       0.045200
     48 H12         -7.8500    -3.3830    -1.2570 hc         1 79C       0.045200
     49 H13          2.4100    -4.1810     1.6570 h1         1 79C       0.046033
     50 H14          0.9370    -5.0510     1.1890 h1         1 79C       0.046033
     51 H15          2.1830    -4.7060    -0.0260 h1         1 79C       0.046033
     52 H16         -0.7830    -1.9000     0.5820 hn         1 79C       0.477800
     53 H17         -2.1990     2.7510    -1.2540 h4         1 79C       0.033100
     54 H18         -6.4690     0.1160    -0.9560 h1         1 79C       0.038700
     55 H19         -6.7540    -1.5330    -3.2430 hc         1 79C       0.045200
     56 H20         -6.1170    -3.1170    -2.8620 hc         1 79C       0.045200
     57 H21         -7.7870    -1.3260     0.5520 hc         1 79C       0.055450
     58 H22         -6.5050    -2.5360     0.5220 hc         1 79C       0.055450
     59 H23          5.2830     1.0810    -0.0300 hn         1 79C       0.313500
     60 H24          7.5420    -0.2130    -1.3770 h1         1 79C       0.074700
     61 H25          7.1120     2.1480    -1.8890 hc         1 79C       0.053700
     62 H26          7.1750     2.5620    -0.1770 hc         1 79C       0.053700
     63 H27          9.4640     1.4660    -1.8780 h1         1 79C       0.033950
     64 H28          9.3090     3.1000    -1.2390 h1         1 79C       0.033950
     65 H30         11.3300     2.9910    -0.0470 h1         1 79C       0.031033
     66 H31         11.6090     1.7020     1.1250 h1         1 79C       0.031033
     67 H32         11.6710     1.3470    -0.6090 h1         1 79C       0.031033
     68 H33          9.8540    -0.3940    -0.2260 h1         1 79C       0.033950
     69 H34          9.9710     0.0420     1.4760 h1         1 79C       0.033950
     70 H35          7.5830     0.6380     1.5480 hc         1 79C       0.053700
     71 H36          7.7860    -1.0040     0.9380 hc         1 79C       0.053700
     72 O2           0.9670    -3.1300     0.5870 os         1 79C      -0.339900
     73 C15         -5.0080     2.7160    -2.0470 c3         1 79C       0.091300
     74 C1           1.6750    -4.3240     0.8620 c3         1 79C       0.130700
@<TRIPOS>BOND
     1     1     2 ar  
     2     1    12 ar  
     3     1    37 1   
     4     2     3 ar  
     5     2    27 1   
     6     3     4 ar  
     7     3    38 1   
     8     4     5 ar  
     9     4    39 1   
    10     5    12 ar  
    11     5    13 1   
    12     6    13 1   
    13     6    14 ar  
    14     6    26 ar  
    15     7    11 ar  
    16     7    15 ar  
    17     7    16 1   
    18     8    19 1   
    19     8    22 1   
    20     8    43 1   
    21     8    44 1   
    22     9    23 1   
    23     9    24 1   
    24     9    45 1   
    25     9    46 1   
    26    10    24 1   
    27    10    25 1   
    28    10    47 1   
    29    10    48 1   
    30    11    22 1   
    31    11    26 ar  
    32    12    72 1   
    33    13    52 1   
    34    14    15 ar  
    35    15    53 1   
    36    16    17 1   
    37    16    73 1   
    38    17    18 2   
    39    17    19 1   
    40    19    20 1   
    41    19    21 1   
    42    22    23 1   
    43    23    25 1   
    44    23    54 1   
    45    24    55 1   
    46    24    56 1   
    47    25    57 1   
    48    25    58 1   
    49    27    28 2   
    50    27    29 1   
    51    29    30 1   
    52    29    59 1   
    53    30    31 1   
    54    30    36 1   
    55    30    60 1   
    56    31    32 1   
    57    31    61 1   
    58    31    62 1   
    59    32    33 1   
    60    32    63 1   
    61    32    64 1   
    62    33    34 1   
    63    33    35 1   
    64    34    65 1   
    65    34    66 1   
    66    34    67 1   
    67    35    36 1   
    68    35    68 1   
    69    35    69 1   
    70    36    70 1   
    71    36    71 1   
    72    40    73 1   
    73    41    73 1   
    74    42    73 1   
    75    49    74 1   
    76    50    74 1   
    77    51    74 1   
    78    72    74 1   
@<TRIPOS>SUBSTRUCTURE
     1 79C         1 TEMP              0 ****  ****    0 ROOT
