@<TRIPOS>MOLECULE
79D
   78    83     1     0     0
SMALL
bcc


@<TRIPOS>ATOM
      1 C6          -5.0730    -1.3340    -0.9400 c5         1 79D       0.241500
      2 C7          -4.7090    -1.2060    -2.4300 c5         1 79D      -0.085400
      3 C8          -4.4700    -2.6490    -2.8610 c5         1 79D      -0.076400
      4 C10         -4.4140    -2.6510    -0.4430 c5         1 79D      -0.085400
      5 N12         -2.5030    -0.3420    -0.4570 nb         1 79D      -0.827000
      6 C13         -1.2900     0.1930    -0.3080 ca         1 79D       0.948900
      7 C15          1.0900    -0.4730    -0.7130 ca         1 79D       0.172600
      8 C17          3.1730     0.6340    -0.1940 ca         1 79D      -0.110000
      9 C20          1.8350    -1.5380    -1.2740 ca         1 79D       0.078100
     10 C26          7.4730     0.4560     0.1760 c6         1 79D       0.112700
     11 C28          9.4710     1.7240    -0.6420 c6         1 79D       0.167800
     12 C1          -7.3350    -1.5020     1.4520 c3         1 79D      -0.096100
     13 C3          -5.7570     0.4190     0.8320 c6         1 79D       0.326800
     14 N5          -4.8040    -0.1280    -0.1620 nh         1 79D      -0.779300
     15 C9          -3.7270    -3.2560    -1.6710 c5         1 79D      -0.076400
     16 C11         -3.5480     0.3720    -0.0830 ca         1 79D       0.754200
     17 C16          1.7840     0.6100    -0.1850 ca         1 79D      -0.143000
     18 C18          3.9020    -0.4130    -0.7330 ca         1 79D      -0.142600
     19 C19          3.2140    -1.4950    -1.2910 ca         1 79D      -0.137000
     20 O21          1.0970    -2.5510    -1.7690 os         1 79D      -0.342900
     21 C23          5.3930    -0.4370    -0.7860 c          1 79D       0.684700
     22 O24          5.9860    -1.1150    -1.6180 o          1 79D      -0.611100
     23 N25          6.0330     0.3040     0.1340 ns         1 79D      -0.567900
     24 C27          7.9670     1.5460    -0.7720 c6         1 79D      -0.091900
     25 N29          9.8450     2.0370     0.7250 n3         1 79D      -0.718600
     26 C30         11.2610     2.3020     0.8370 c3         1 79D       0.153100
     27 C31          9.4310     0.9860     1.6350 c6         1 79D       0.167800
     28 C32          7.9260     0.7750     1.5950 c6         1 79D      -0.091900
     29 N33         -1.0150     1.3820     0.2110 nb         1 79D      -0.780000
     30 C34         -2.0640     2.1290     0.5440 ca         1 79D       0.505200
     31 C35         -3.3530     1.6910     0.3930 ca         1 79D      -0.375800
     32 N36         -4.4950     2.4790     0.5730 na         1 79D      -0.072000
     33 C37         -4.6550     3.8290     0.5000 cc         1 79D       0.411400
     34 N38         -5.9080     4.1580     0.5860 nd         1 79D      -0.631000
     35 C39         -6.5910     2.9740     0.7040 cd         1 79D       0.388300
     36 C40         -8.0030     2.9820     0.8110 ch         1 79D       0.170800
     37 N41         -9.1520     3.0230     0.9020 n1         1 79D      -0.366800
     38 C42         -5.7210     1.9090     0.6940 cc         1 79D      -0.180900
     39 H1          -6.1500    -1.4670    -0.9070 h1         1 79D       0.058700
     40 H2          -5.5030    -0.7120    -2.9900 hc         1 79D       0.053200
     41 H3          -3.7980    -0.6250    -2.5680 hc         1 79D       0.053200
     42 H4          -5.4240    -3.1610    -3.0130 hc         1 79D       0.045700
     43 H5          -3.9110    -2.7210    -3.7960 hc         1 79D       0.045700
     44 H6          -3.7190    -2.4830     0.3770 hc         1 79D       0.053200
     45 H7          -5.1890    -3.3240    -0.0700 hc         1 79D       0.053200
     46 H8           3.6620     1.5100     0.2120 ha         1 79D       0.132000
     47 H9           2.3470    -3.3730    -3.2190 h1         1 79D       0.045700
     48 H10          2.4050    -4.1650    -1.6270 h1         1 79D       0.045700
     49 H11          0.9750    -4.3500    -2.6610 h1         1 79D       0.045700
     50 H12          7.9210    -0.4970    -0.1230 h1         1 79D       0.072700
     51 H14          9.8040     2.5370    -1.2910 h1         1 79D       0.033950
     52 H15         -6.7800    -2.3000     0.9640 hc         1 79D       0.041367
     53 H16         -7.0030    -1.4570     2.4900 hc         1 79D       0.041367
     54 H17         -8.3850    -1.7920     1.4530 hc         1 79D       0.041367
     55 H20         -5.3640     0.1910     1.8340 h1         1 79D       0.063700
     56 H21         -3.7450    -4.3460    -1.6690 hc         1 79D       0.045700
     57 H22         -2.6800    -2.9470    -1.7020 hc         1 79D       0.045700
     58 H24          1.2400     1.4410     0.2320 ha         1 79D       0.173000
     59 H25          3.7810    -2.3040    -1.7300 ha         1 79D       0.160000
     60 H26          5.4960     0.7980     0.8290 hn         1 79D       0.315500
     61 H27          7.7130     1.2950    -1.8040 hc         1 79D       0.053700
     62 H28          7.4660     2.4870    -0.5280 hc         1 79D       0.053700
     63 H30         11.5390     3.1310     0.1840 h1         1 79D       0.031033
     64 H31         11.5110     2.5830     1.8610 h1         1 79D       0.031033
     65 H32         11.8880     1.4390     0.5640 h1         1 79D       0.031033
     66 H33          9.9350     0.0300     1.4010 h1         1 79D       0.033950
     67 H34          9.7350     1.2590     2.6490 h1         1 79D       0.033950
     68 H35          7.4200     1.6800     1.9470 hc         1 79D       0.053700
     69 H36          7.6550    -0.0370     2.2740 hc         1 79D       0.053700
     70 H37         -1.8520     3.1200     0.9300 h4         1 79D       0.029100
     71 H38         -3.8280     4.5090     0.3700 h5         1 79D       0.067100
     72 N14         -0.2850    -0.6190    -0.7390 nu         1 79D      -0.719300
     73 C2          -7.1740    -0.1410     0.7860 c3         1 79D      -0.083400
     74 H13          9.9820     0.8100    -0.9970 h1         1 79D       0.033950
     75 C22          1.7550    -3.6620    -2.3470 c3         1 79D       0.130700
     76 H18         -7.5640    -0.1360    -0.2340 hc         1 79D       0.066200
     77 H19         -7.8000     0.5510     1.3490 hc         1 79D       0.066200
     78 H23         -0.6200    -1.4880    -1.1290 hn         1 79D       0.474800
@<TRIPOS>BOND
     1     1     2 1   
     2     1     4 1   
     3     1    14 1   
     4     1    39 1   
     5     2     3 1   
     6     2    40 1   
     7     2    41 1   
     8     3    15 1   
     9     3    42 1   
    10     3    43 1   
    11     4    15 1   
    12     4    44 1   
    13     4    45 1   
    14     5     6 ar  
    15     5    16 ar  
    16     6    29 ar  
    17     6    72 1   
    18     7     9 ar  
    19     7    17 ar  
    20     7    72 1   
    21     8    17 ar  
    22     8    18 ar  
    23     8    46 1   
    24     9    19 ar  
    25     9    20 1   
    26    10    23 1   
    27    10    24 1   
    28    10    28 1   
    29    10    50 1   
    30    11    24 1   
    31    11    25 1   
    32    11    51 1   
    33    11    74 1   
    34    12    52 1   
    35    12    53 1   
    36    12    54 1   
    37    12    73 1   
    38    13    14 1   
    39    13    38 1   
    40    13    55 1   
    41    13    73 1   
    42    14    16 1   
    43    15    56 1   
    44    15    57 1   
    45    16    31 ar  
    46    17    58 1   
    47    18    19 ar  
    48    18    21 1   
    49    19    59 1   
    50    20    75 1   
    51    21    22 2   
    52    21    23 1   
    53    23    60 1   
    54    24    61 1   
    55    24    62 1   
    56    25    26 1   
    57    25    27 1   
    58    26    63 1   
    59    26    64 1   
    60    26    65 1   
    61    27    28 1   
    62    27    66 1   
    63    27    67 1   
    64    28    68 1   
    65    28    69 1   
    66    29    30 ar  
    67    30    31 ar  
    68    30    70 1   
    69    31    32 1   
    70    32    33 1   
    71    32    38 1   
    72    33    34 2   
    73    33    71 1   
    74    34    35 1   
    75    35    36 1   
    76    35    38 2   
    77    36    37 3   
    78    47    75 1   
    79    48    75 1   
    80    49    75 1   
    81    72    78 1   
    82    73    76 1   
    83    73    77 1   
@<TRIPOS>SUBSTRUCTURE
     1 79D         1 TEMP              0 ****  ****    0 ROOT
