@<TRIPOS>MOLECULE
79D
   78    83     1     0     0
SMALL
No Charge or Current Charge


@<TRIPOS>ATOM
      1 C6          -5.3080    -1.1920    -1.0970 c5         1 79D       0.241500
      2 C7          -4.7660    -0.5530    -2.4170 c5         1 79D      -0.085400
      3 C8          -4.6790    -1.8050    -3.3210 c5         1 79D      -0.076400
      4 C10         -4.6670    -2.6220    -1.0360 c5         1 79D      -0.085400
      5 N12         -2.4990    -0.6240     0.0090 nb         1 79D      -0.301000
      6 C13         -1.2900    -0.0520     0.0500 ca         1 79D       0.422900
      7 C15          1.1580    -0.8570    -0.1970 ca         1 79D       0.311000
      8 C17          3.2780     0.1970     0.4180 ca         1 79D      -0.092000
      9 C20          1.8750    -1.8650    -0.8910 ca         1 79D       0.078100
     10 C26          7.6180     0.4700     0.3300 c6         1 79D       0.112700
     11 C28          9.6220     1.4770    -0.8800 c6         1 79D       0.167800
     12 C1          -7.4510    -1.7300     1.4430 c3         1 79D      -0.096100
     13 C3          -5.8520     0.3170     1.0000 c6         1 79D       0.326800
     14 N5          -4.8700    -0.3760     0.0990 nh         1 79D      -0.779300
     15 C9          -3.8940    -2.7590    -2.3830 c5         1 79D      -0.076400
     16 C11         -3.5590     0.1860     0.1760 ca         1 79D       0.425900
     17 C16          1.8740     0.1580     0.4640 ca         1 79D      -0.125000
     18 C18          4.0060    -0.7900    -0.2870 ca         1 79D      -0.142600
     19 C19          3.2870    -1.8210    -0.9350 ca         1 79D      -0.119000
     20 O21          1.1530    -2.8780    -1.5130 os         1 79D      -0.366100
     21 C23          5.5230    -0.7780    -0.3590 c          1 79D       0.617700
     22 O24          6.1550    -1.6370    -0.9590 o          1 79D      -0.611100
     23 N25          6.1660     0.2550     0.2900 ns         1 79D      -0.500900
     24 C27          8.1050     1.1840    -0.9530 c6         1 79D      -0.091900
     25 N29          9.9600     2.2860     0.3220 n3         1 79D      -0.718600
     26 C30         11.3880     2.6680     0.3590 c3         1 79D       0.153100
     27 C31          9.5210     1.6160     1.5760 c6         1 79D       0.167800
     28 C32          8.0010     1.3280     1.5570 c6         1 79D      -0.091900
     29 N33         -1.0190     1.2540     0.2200 nb         1 79D      -0.254000
     30 C34         -2.0730     2.0720     0.3910 ca         1 79D       0.176900
     31 C35         -3.3870     1.5750     0.3780 ca         1 79D      -0.245200
     32 N36         -4.5140     2.3780     0.5610 na         1 79D      -0.021300
     33 C37         -4.6320     3.7300     0.3540 cc         1 79D       0.411400
     34 N38         -5.9130     4.0650     0.4710 nd         1 79D      -0.631000
     35 C39         -6.6110     2.8790     0.7330 cd         1 79D       0.323000
     36 C40         -8.0330     2.8590     0.8930 ch         1 79D       0.260000
     37 N41         -9.1970     2.8670     1.0140 n1         1 79D      -0.456000
     38 C42         -5.7280     1.8120     0.7840 cc         1 79D      -0.166300
     39 H1          -6.3970    -1.2860    -1.1820 h1         1 79D       0.058700
     40 H2          -5.4500     0.2050    -2.8140 hc         1 79D       0.053200
     41 H3          -3.7820    -0.0810    -2.3330 hc         1 79D       0.053200
     42 H4          -5.6700    -2.2010    -3.5760 hc         1 79D       0.045700
     43 H5          -4.1480    -1.6090    -4.2590 hc         1 79D       0.045700
     44 H6          -4.0210    -2.7870    -0.1680 hc         1 79D       0.053200
     45 H7          -5.4570    -3.3790    -0.9700 hc         1 79D       0.053200
     46 H8           3.7820     1.0030     0.9450 ha         1 79D       0.114000
     47 H9           2.3690    -3.5460    -3.0880 h1         1 79D       0.045700
     48 H10          2.4520    -4.5240    -1.5980 h1         1 79D       0.045700
     49 H11          1.0290    -4.6270    -2.6530 h1         1 79D       0.045700
     50 H12          8.1180    -0.5080     0.4100 h1         1 79D       0.072700
     51 H14          9.9220     2.0100    -1.7940 h1         1 79D       0.033950
     52 H15         -6.9440    -2.4200     0.7630 hc         1 79D       0.041367
     53 H16         -7.0280    -1.8680     2.4450 hc         1 79D       0.041367
     54 H17         -8.5100    -2.0130     1.4800 hc         1 79D       0.041367
     55 H20         -5.5070     0.1320     2.0290 h1         1 79D       0.063700
     56 H21         -3.8810    -3.7910    -2.7520 hc         1 79D       0.045700
     57 H22         -2.8500    -2.4410    -2.2790 hc         1 79D       0.045700
     58 H24          1.3530     0.9170     1.0360 ha         1 79D       0.155000
     59 H25          3.8430    -2.5860    -1.4700 ha         1 79D       0.142000
     60 H26          5.5740     0.9250     0.7610 hn         1 79D       0.315500
     61 H27          7.8950     0.5630    -1.8340 hc         1 79D       0.053700
     62 H28          7.5570     2.1250    -1.0930 hc         1 79D       0.053700
     63 H30         11.6670     3.2160    -0.5500 h1         1 79D       0.031033
     64 H31         11.5950     3.3160     1.2210 h1         1 79D       0.031033
     65 H32         12.0300     1.7790     0.4360 h1         1 79D       0.031033
     66 H33         10.0650     0.6690     1.7130 h1         1 79D       0.033950
     67 H34          9.7480     2.2490     2.4460 h1         1 79D       0.033950
     68 H35          7.4510     2.2780     1.5420 hc         1 79D       0.053700
     69 H36          7.7150     0.8100     2.4820 hc         1 79D       0.053700
     70 H37         -1.8540     3.1270     0.5420 h4         1 79D       0.029100
     71 H38         -3.7980     4.3800     0.1210 h5         1 79D       0.067100
     72 N14         -0.2460    -0.9360    -0.1670 nu         1 79D      -0.912900
     73 C2          -7.3080    -0.2560     0.9920 c3         1 79D      -0.083400
     74 H13         10.1720     0.5240    -0.8650 h1         1 79D       0.033950
     75 C22          1.7850    -3.9440    -2.2480 c3         1 79D       0.153900
     76 H18         -7.7810    -0.1140     0.0130 hc         1 79D       0.066200
     77 H19         -7.9090     0.3180     1.7030 hc         1 79D       0.066200
     78 H23         -0.5760    -1.8360    -0.5130 hn         1 79D       0.530000
@<TRIPOS>BOND
     1     1     2 1   
     2     1     4 1   
     3     1    14 1   
     4     1    39 1   
     5     2     3 1   
     6     2    40 1   
     7     2    41 1   
     8     3    15 1   
     9     3    42 1   
    10     3    43 1   
    11     4    15 1   
    12     4    44 1   
    13     4    45 1   
    14     5     6 ar  
    15     5    16 ar  
    16     6    29 ar  
    17     6    72 1   
    18     7     9 ar  
    19     7    17 ar  
    20     7    72 1   
    21     8    17 ar  
    22     8    18 ar  
    23     8    46 1   
    24     9    19 ar  
    25     9    20 1   
    26    10    23 1   
    27    10    24 1   
    28    10    28 1   
    29    10    50 1   
    30    11    24 1   
    31    11    25 1   
    32    11    51 1   
    33    11    74 1   
    34    12    52 1   
    35    12    53 1   
    36    12    54 1   
    37    12    73 1   
    38    13    14 1   
    39    13    38 1   
    40    13    55 1   
    41    13    73 1   
    42    14    16 1   
    43    15    56 1   
    44    15    57 1   
    45    16    31 ar  
    46    17    58 1   
    47    18    19 ar  
    48    18    21 1   
    49    19    59 1   
    50    20    75 1   
    51    21    22 2   
    52    21    23 1   
    53    23    60 1   
    54    24    61 1   
    55    24    62 1   
    56    25    26 1   
    57    25    27 1   
    58    26    63 1   
    59    26    64 1   
    60    26    65 1   
    61    27    28 1   
    62    27    66 1   
    63    27    67 1   
    64    28    68 1   
    65    28    69 1   
    66    29    30 ar  
    67    30    31 ar  
    68    30    70 1   
    69    31    32 1   
    70    32    33 1   
    71    32    38 1   
    72    33    34 2   
    73    33    71 1   
    74    34    35 1   
    75    35    36 1   
    76    35    38 2   
    77    36    37 3   
    78    47    75 1   
    79    48    75 1   
    80    49    75 1   
    81    72    78 1   
    82    73    76 1   
    83    73    77 1   
@<TRIPOS>SUBSTRUCTURE
     1 79D         1 TEMP              0 ****  ****    0 ROOT
