@<TRIPOS>MOLECULE
79E
   66    66     1     0     0
SMALL
bcc


@<TRIPOS>ATOM
      1 O3           1.0620     0.6990     2.0990 o          1 79E      -0.635000
      2 C4          -2.1980     1.3510     0.2910 c3         1 79E       0.032700
      3 C5          -2.8330    -1.0000     0.3630 c          1 79E       0.650100
      4 O4           2.9280     0.7820     0.8350 os         1 79E      -0.443900
      5 C6          -2.9250    -2.2850    -0.4630 c3         1 79E       0.170500
      6 N1          -1.7380    -3.0830    -0.1990 n7         1 79E      -0.909300
      7 C7          -4.1980    -3.0390    -0.0890 c3         1 79E      -0.075400
      8 C8          -4.4680    -4.3090    -0.8990 c3         1 79E      -0.061700
      9 N2           1.5950    -0.9680     0.6440 ns         1 79E      -0.507900
     10 C9          -5.7750    -4.9370    -0.4250 c3         1 79E      -0.086600
     11 C10         -4.5140    -4.0430    -2.4000 c3         1 79E      -0.086600
     12 C11          0.4120    -1.7690     0.8480 c3         1 79E      -0.086200
     13 C12          1.7950     0.2040     1.2630 c          1 79E       0.743100
     14 C13          3.2560     2.0600     1.3890 c3         1 79E       0.208700
     15 C14          4.4250     2.5850     0.6130 ca         1 79E      -0.086300
     16 C15          5.7150     2.4980     1.1230 ca         1 79E      -0.103500
     17 C20         -3.2600     1.7460     1.3140 c          1 79E       0.685100
     18 P           -0.2020    -2.5320    -0.7220 p5         1 79E       1.189500
     19 O2          -0.3690    -1.4450    -1.7590 o          1 79E      -0.826500
     20 O1           0.6480    -3.7410    -1.0200 o          1 79E      -0.826500
     21 C19          4.2320     3.1470    -0.6470 ca         1 79E      -0.103500
     22 C18          5.3110     3.6140    -1.3840 ca         1 79E      -0.138000
     23 C17          6.5980     3.5220    -0.8670 ca         1 79E      -0.127000
     24 C16          6.7980     2.9660     0.3890 ca         1 79E      -0.138000
     25 C3          -2.1140     2.4850    -0.7360 c3         1 79E      -0.076400
     26 C1          -1.1040     2.3080    -1.8750 c3         1 79E      -0.062700
     27 C2          -1.1090     3.5660    -2.7390 c3         1 79E      -0.087100
     28 C            0.3000     1.9910    -1.3740 c3         1 79E      -0.087100
     29 H1          -1.2290     1.2500     0.7950 h1         1 79E       0.067700
     30 H2          -2.9940    -2.0010    -1.5200 h1         1 79E       0.037700
     31 H3          -1.8790    -4.0670    -0.3770 hn         1 79E       0.392800
     32 H4          -4.1670    -3.2860     0.9760 hc         1 79E       0.050700
     33 H5          -5.0470    -2.3600    -0.2270 hc         1 79E       0.050700
     34 H6          -3.6700    -5.0370    -0.7070 hc         1 79E       0.048700
     35 H7           2.2900    -1.2860    -0.0140 hn         1 79E       0.330500
     36 H8          -6.6150    -4.2590    -0.5960 hc         1 79E       0.027700
     37 H9          -5.9860    -5.8660    -0.9570 hc         1 79E       0.027700
     38 H10         -5.7450    -5.1650     0.6420 hc         1 79E       0.027700
     39 H11         -5.2520    -3.2730    -2.6360 hc         1 79E       0.027700
     40 H12         -3.5520    -3.7120    -2.7940 hc         1 79E       0.027700
     41 H13         -4.7920    -4.9460    -2.9460 hc         1 79E       0.027700
     42 H14          0.5940    -2.5670     1.5750 h1         1 79E       0.062700
     43 H15         -0.3600    -1.1350     1.2780 h1         1 79E       0.062700
     44 H16         -3.3830     2.5700     3.1810 hn         1 79E       0.310000
     45 H17         -1.7860     2.1870     2.6760 hn         1 79E       0.310000
     46 H18          2.4040     2.7380     1.3060 h1         1 79E       0.048200
     47 H19          3.5040     1.9610     2.4480 h1         1 79E       0.048200
     48 H20          5.8790     2.0650     2.1020 ha         1 79E       0.136000
     49 H23          3.2300     3.2300    -1.0530 ha         1 79E       0.136000
     50 H24          5.1470     4.0520    -2.3600 ha         1 79E       0.125000
     51 H25          7.4410     3.8870    -1.4400 ha         1 79E       0.122000
     52 H26          7.7980     2.8950     0.7980 ha         1 79E       0.125000
     53 H27         -3.1080     2.6410    -1.1630 hc         1 79E       0.043200
     54 H28         -1.8600     3.4000    -0.1910 hc         1 79E       0.043200
     55 H29         -1.4290     1.4770    -2.5110 hc         1 79E       0.070700
     56 H30         -0.7470     4.4280    -2.1730 hc         1 79E       0.030700
     57 H31         -0.4600     3.4450    -3.6080 hc         1 79E       0.030700
     58 H32         -2.1110     3.8020    -3.1010 hc         1 79E       0.030700
     59 H33          0.3590     0.9830    -0.9670 hc         1 79E       0.030700
     60 H34          1.0230     2.0500    -2.1900 hc         1 79E       0.030700
     61 H35          0.6160     2.6990    -0.6030 hc         1 79E       0.030700
     62 N           -2.5500     0.1060    -0.3490 ns         1 79E      -0.543900
     63 O5          -4.4520     1.7080     1.0530 o          1 79E      -0.617100
     64 N3          -2.7660     2.2360     2.4590 nt         1 79E      -0.673000
     65 H21         -2.1520    -0.0590    -1.2630 hn         1 79E       0.351500
     66 O           -2.9990    -0.9840     1.5740 o          1 79E      -0.614100
@<TRIPOS>BOND
     1     1    13 2   
     2     2    17 1   
     3     2    25 1   
     4     2    29 1   
     5     2    62 1   
     6     3     5 1   
     7     3    62 1   
     8     3    66 2   
     9     4    13 1   
    10     4    14 1   
    11     5     6 1   
    12     5     7 1   
    13     5    30 1   
    14     6    18 1   
    15     6    31 1   
    16     7     8 1   
    17     7    32 1   
    18     7    33 1   
    19     8    10 1   
    20     8    11 1   
    21     8    34 1   
    22     9    12 1   
    23     9    13 1   
    24     9    35 1   
    25    10    36 1   
    26    10    37 1   
    27    10    38 1   
    28    11    39 1   
    29    11    40 1   
    30    11    41 1   
    31    12    18 1   
    32    12    42 1   
    33    12    43 1   
    34    14    15 1   
    35    14    46 1   
    36    14    47 1   
    37    15    16 ar  
    38    15    21 ar  
    39    16    24 ar  
    40    16    48 1   
    41    17    63 2   
    42    17    64 1   
    43    18    19 1   
    44    18    20 1   
    45    21    22 ar  
    46    21    49 1   
    47    22    23 ar  
    48    22    50 1   
    49    23    24 ar  
    50    23    51 1   
    51    24    52 1   
    52    25    26 1   
    53    25    53 1   
    54    25    54 1   
    55    26    27 1   
    56    26    28 1   
    57    26    55 1   
    58    27    56 1   
    59    27    57 1   
    60    27    58 1   
    61    28    59 1   
    62    28    60 1   
    63    28    61 1   
    64    44    64 1   
    65    45    64 1   
    66    62    65 1   
@<TRIPOS>SUBSTRUCTURE
     1 79E         1 TEMP              0 ****  ****    0 ROOT
