@<TRIPOS>MOLECULE
79E
   66    66     1     0     0
SMALL
No Charge or Current Charge


@<TRIPOS>ATOM
      1 O3           2.0060     0.4510     2.0420 o          1 79E      -0.586000
      2 C4          -3.4790     1.5510     0.3500 c3         1 79E       0.032700
      3 C5          -2.9410    -0.9200     0.5310 c          1 79E       0.583100
      4 O4           3.4470     0.8390     0.2930 os         1 79E      -0.467100
      5 C6          -2.8030    -2.2580    -0.2930 c3         1 79E       0.170500
      6 N1          -1.5080    -2.9880    -0.1280 n7         1 79E      -0.964500
      7 C7          -3.9760    -3.2120     0.0680 c3         1 79E      -0.075400
      8 C8          -4.1170    -4.4950    -0.8040 c3         1 79E      -0.061700
      9 N2           1.5550    -0.2490    -0.1080 ns         1 79E      -0.440900
     10 C9          -5.2560    -5.3950    -0.2720 c3         1 79E      -0.086600
     11 C10         -4.3250    -4.1850    -2.3060 c3         1 79E      -0.086600
     12 C11          0.2230    -0.8830     0.1020 c3         1 79E      -0.244000
     13 C12          2.3130     0.3520     0.8630 c          1 79E       0.627100
     14 C13          4.3710     1.5360     1.1440 c3         1 79E       0.231900
     15 C14          5.5460     2.0070     0.2980 ca         1 79E      -0.086300
     16 C15          6.7050     1.2130     0.1840 ca         1 79E      -0.085500
     17 C20         -4.9910     1.7230     0.7030 c          1 79E       0.618100
     18 P           -0.0820    -2.4940    -0.7630 p5         1 79E       1.347300
     19 O2          -0.3080    -2.3210    -2.2210 o          1 79E      -0.826500
     20 O1           0.9160    -3.5470    -0.4360 o          1 79E      -0.826500
     21 C19          5.4840     3.2410    -0.3790 ca         1 79E      -0.085500
     22 C18          6.5700     3.6770    -1.1590 ca         1 79E      -0.120000
     23 C17          7.7230     2.8820    -1.2670 ca         1 79E      -0.109000
     24 C16          7.7900     1.6500    -0.5960 ca         1 79E      -0.120000
     25 C3          -2.9650     2.6770    -0.5930 c3         1 79E      -0.076400
     26 C1          -1.4490     2.6310    -0.9420 c3         1 79E      -0.062700
     27 C2          -1.0920     3.7110    -1.9880 c3         1 79E      -0.087100
     28 C           -0.5450     2.7630     0.3080 c3         1 79E      -0.087100
     29 H1          -2.9410     1.6360     1.3020 h1         1 79E       0.067700
     30 H2          -2.9220    -1.9790    -1.3480 h1         1 79E       0.037700
     31 H3          -1.5590    -3.8420    -0.6740 hn         1 79E       0.448000
     32 H4          -3.8710    -3.5050     1.1200 hc         1 79E       0.050700
     33 H5          -4.9130    -2.6450     0.0020 hc         1 79E       0.050700
     34 H6          -3.1910    -5.0770    -0.7130 hc         1 79E       0.048700
     35 H7           1.9640    -0.2460    -1.0360 hn         1 79E       0.330500
     36 H8          -6.2230    -4.8830    -0.3390 hc         1 79E       0.027700
     37 H9          -5.3190    -6.3250    -0.8500 hc         1 79E       0.027700
     38 H10         -5.0810    -5.6630     0.7780 hc         1 79E       0.027700
     39 H11         -5.2060    -3.5480    -2.4550 hc         1 79E       0.027700
     40 H12         -3.4530    -3.6750    -2.7310 hc         1 79E       0.027700
     41 H13         -4.4730    -5.1100    -2.8750 hc         1 79E       0.027700
     42 H14          0.0620    -1.0690     1.1700 h1         1 79E       0.062700
     43 H15         -0.5430    -0.1910    -0.2560 h1         1 79E       0.062700
     44 H16         -6.3060     3.0250     1.5730 hn         1 79E       0.310000
     45 H17         -4.6370     3.5610     1.5530 hn         1 79E       0.310000
     46 H18          3.8880     2.4050     1.6130 h1         1 79E       0.048200
     47 H19          4.7330     0.8790     1.9460 h1         1 79E       0.048200
     48 H20          6.7640     0.2560     0.6990 ha         1 79E       0.118000
     49 H23          4.5930     3.8610    -0.3020 ha         1 79E       0.118000
     50 H24          6.5160     4.6310    -1.6790 ha         1 79E       0.107000
     51 H25          8.5630     3.2200    -1.8710 ha         1 79E       0.104000
     52 H26          8.6820     1.0330    -0.6800 ha         1 79E       0.107000
     53 H27         -3.5440     2.6360    -1.5250 hc         1 79E       0.043200
     54 H28         -3.1820     3.6530    -0.1420 hc         1 79E       0.043200
     55 H29         -1.2350     1.6610    -1.4070 hc         1 79E       0.070700
     56 H30         -1.2760     4.7170    -1.5910 hc         1 79E       0.030700
     57 H31         -0.0340     3.6420    -2.2710 hc         1 79E       0.030700
     58 H32         -1.6920     3.5850    -2.8970 hc         1 79E       0.030700
     59 H33         -0.7060     1.9340     1.0060 hc         1 79E       0.030700
     60 H34          0.5130     2.7520     0.0210 hc         1 79E       0.030700
     61 H35         -0.7450     3.7030     0.8370 hc         1 79E       0.030700
     62 N           -3.2270     0.2060    -0.2200 ns         1 79E      -0.476900
     63 O5          -5.8550     0.8980     0.4410 o          1 79E      -0.617100
     64 N3          -5.3390     2.8710     1.3290 nt         1 79E      -0.606000
     65 H21         -3.3420     0.0750    -1.2180 hn         1 79E       0.351500
     66 O           -2.8170    -0.8610     1.7500 o          1 79E      -0.614100
@<TRIPOS>BOND
     1     1    13 2   
     2     2    17 1   
     3     2    25 1   
     4     2    29 1   
     5     2    62 1   
     6     3     5 1   
     7     3    62 1   
     8     3    66 2   
     9     4    13 1   
    10     4    14 1   
    11     5     6 1   
    12     5     7 1   
    13     5    30 1   
    14     6    18 1   
    15     6    31 1   
    16     7     8 1   
    17     7    32 1   
    18     7    33 1   
    19     8    10 1   
    20     8    11 1   
    21     8    34 1   
    22     9    12 1   
    23     9    13 1   
    24     9    35 1   
    25    10    36 1   
    26    10    37 1   
    27    10    38 1   
    28    11    39 1   
    29    11    40 1   
    30    11    41 1   
    31    12    18 1   
    32    12    42 1   
    33    12    43 1   
    34    14    15 1   
    35    14    46 1   
    36    14    47 1   
    37    15    16 ar  
    38    15    21 ar  
    39    16    24 ar  
    40    16    48 1   
    41    17    63 2   
    42    17    64 1   
    43    18    19 1   
    44    18    20 1   
    45    21    22 ar  
    46    21    49 1   
    47    22    23 ar  
    48    22    50 1   
    49    23    24 ar  
    50    23    51 1   
    51    24    52 1   
    52    25    26 1   
    53    25    53 1   
    54    25    54 1   
    55    26    27 1   
    56    26    28 1   
    57    26    55 1   
    58    27    56 1   
    59    27    57 1   
    60    27    58 1   
    61    28    59 1   
    62    28    60 1   
    63    28    61 1   
    64    44    64 1   
    65    45    64 1   
    66    62    65 1   
@<TRIPOS>SUBSTRUCTURE
     1 79E         1 TEMP              0 ****  ****    0 ROOT
