@<TRIPOS>MOLECULE
79F
   56    56     1     0     0
SMALL
No Charge or Current Charge


@<TRIPOS>ATOM
      1 C2           7.4660    -0.1970    -0.2980 ca         1 79F      -0.087500
      2 C3           8.4650    -0.9030    -0.9920 ca         1 79F      -0.123000
      3 C8           6.6570    -0.8560     0.6500 ca         1 79F      -0.073300
      4 C9           5.5720    -0.0960     1.4040 c3         1 79F       0.230900
      5 C13          3.1980     0.2060     1.3260 c          1 79F       0.631100
      6 C24         -3.6930     0.7460     0.4570 c          1 79F       0.602100
      7 N25         -4.0590    -0.5240     0.8780 ns         1 79F      -0.476900
      8 C27         -4.8480    -2.3900    -0.6150 c3         1 79F      -0.067400
      9 C33         -3.7250    -3.0540    -2.8120 c3         1 79F      -0.080100
     10 C4           8.6600    -2.2720    -0.7440 ca         1 79F      -0.119000
     11 C5           7.8560    -2.9360     0.1980 ca         1 79F      -0.123000
     12 C6           6.8570    -2.2300     0.8940 ca         1 79F      -0.087500
     13 C17          0.6920     0.2340     0.8920 c3         1 79F      -0.250000
     14 P18          0.2310     1.9820     0.4460 p5         1 79F       1.373300
     15 O19          0.3580     2.9330     1.5810 o          1 79F      -0.838000
     16 O20          0.8550     2.4710    -0.8140 o          1 79F      -0.838000
     17 N21         -1.3620     1.7920     0.1280 n7         1 79F      -0.979500
     18 C23         -2.3790     1.3060     1.1190 c3         1 79F       0.177500
     19 C47         -2.7450     2.4300     2.1340 c3         1 79F       0.130600
     20 O50         -2.9750     3.6880     1.4670 oh         1 79F      -0.640000
     21 O12          4.3040    -0.3690     0.7800 os         1 79F      -0.474100
     22 O14          3.1800     0.9330     2.3080 o          1 79F      -0.559000
     23 N15          2.0930    -0.1940     0.6160 ns         1 79F      -0.443900
     24 C26         -5.2430    -1.2900     0.4090 c3         1 79F      -0.035300
     25 C28         -4.3070    -1.8860    -1.9830 c3         1 79F      -0.064700
     26 C29         -5.3760    -1.1210    -2.8020 c3         1 79F      -0.080100
     27 C41         -6.0030    -1.9050     1.6280 c          1 79F       0.714000
     28 O42         -7.1890    -1.6370     1.7630 o          1 79F      -0.735000
     29 O43         -5.3690    -2.5590     2.4460 o          1 79F      -0.735000
     30 H1           7.3210     0.8630    -0.4980 ha         1 79F       0.119000
     31 H2           9.0860    -0.3890    -1.7230 ha         1 79F       0.101500
     32 H3           5.5660    -0.4190     2.4540 h1         1 79F       0.049200
     33 H4           5.7920     0.9800     1.3840 h1         1 79F       0.049200
     34 H5          -3.4700    -0.9590     1.5800 hn         1 79F       0.283500
     35 H6          -4.0970    -3.0400    -0.1490 hc         1 79F       0.037700
     36 H7          -5.7250    -3.0240    -0.8020 hc         1 79F       0.037700
     37 H8          -4.5020    -3.7930    -3.0440 hc         1 79F       0.020033
     38 H9          -3.3060    -2.6890    -3.7570 hc         1 79F       0.020033
     39 H10         -2.9230    -3.5600    -2.2610 hc         1 79F       0.020033
     40 H11          9.4320    -2.8180    -1.2810 ha         1 79F       0.097000
     41 H12          8.0040    -3.9970     0.3890 ha         1 79F       0.101500
     42 H13          6.2360    -2.7510     1.6200 ha         1 79F       0.119000
     43 H14          0.4850     0.1210     1.9620 h1         1 79F       0.061700
     44 H15          0.0120    -0.4220     0.3360 h1         1 79F       0.061700
     45 H17         -1.5680     2.7830     0.0080 hn         1 79F       0.473000
     46 H18         -1.9580     0.4690     1.6910 h1         1 79F       0.051700
     47 H19         -3.6350     2.1270     2.7020 h1         1 79F       0.027700
     48 H20         -1.9260     2.5370     2.8580 h1         1 79F       0.027700
     49 H21         -3.1480     4.3570     2.1650 ho         1 79F       0.418000
     50 H22          2.2840    -0.7950    -0.1790 hn         1 79F       0.317500
     51 H23         -5.9460    -0.5970    -0.0680 h1         1 79F       0.060700
     52 H24         -3.4800    -1.1920    -1.7880 hc         1 79F       0.049700
     53 H25         -5.7250    -0.2290    -2.2710 hc         1 79F       0.020033
     54 H26         -4.9630    -0.7920    -3.7630 hc         1 79F       0.020033
     55 H27         -6.2430    -1.7620    -3.0040 hc         1 79F       0.020033
     56 O45         -4.3460     1.3570    -0.3840 o          1 79F      -0.614100
@<TRIPOS>BOND
     1     1     2 ar  
     2     1     3 ar  
     3     1    30 1   
     4     2    10 ar  
     5     2    31 1   
     6     3     4 1   
     7     3    12 ar  
     8     4    21 1   
     9     4    32 1   
    10     4    33 1   
    11     5    21 1   
    12     5    22 2   
    13     5    23 1   
    14     6     7 1   
    15     6    18 1   
    16     6    56 2   
    17     7    24 1   
    18     7    34 1   
    19     8    24 1   
    20     8    25 1   
    21     8    35 1   
    22     8    36 1   
    23     9    25 1   
    24     9    37 1   
    25     9    38 1   
    26     9    39 1   
    27    10    11 ar  
    28    10    40 1   
    29    11    12 ar  
    30    11    41 1   
    31    12    42 1   
    32    13    14 1   
    33    13    23 1   
    34    13    43 1   
    35    13    44 1   
    36    14    15 1   
    37    14    16 1   
    38    14    17 1   
    39    17    18 1   
    40    17    45 1   
    41    18    19 1   
    42    18    46 1   
    43    19    20 1   
    44    19    47 1   
    45    19    48 1   
    46    20    49 1   
    47    23    50 1   
    48    24    27 1   
    49    24    51 1   
    50    25    26 1   
    51    25    52 1   
    52    26    53 1   
    53    26    54 1   
    54    26    55 1   
    55    27    28 1   
    56    27    29 1   
@<TRIPOS>SUBSTRUCTURE
     1 79F         1 TEMP              0 ****  ****    0 ROOT
