@<TRIPOS>MOLECULE
79F
   56    56     1     0     0
SMALL
bcc


@<TRIPOS>ATOM
      1 C2           7.3320    -0.7960     1.4100 ca         1 79F      -0.105500
      2 C3           8.6740    -0.4730     1.2460 ca         1 79F      -0.141000
      3 C8           6.5460    -1.1330     0.3140 ca         1 79F      -0.073300
      4 C9           5.0960    -1.4760     0.4890 c3         1 79F       0.207700
      5 C13          3.0080    -0.5830    -0.1670 c          1 79F       0.747100
      6 C24         -3.3000     1.0070    -0.0110 c          1 79F       0.669100
      7 N25         -3.9420    -0.1190     0.3360 ns         1 79F      -0.543900
      8 C27         -5.5980    -1.8890     0.1680 c3         1 79F      -0.067400
      9 C33         -5.0460    -4.3140    -0.0710 c3         1 79F      -0.080100
     10 C4           9.2390    -0.4780    -0.0210 ca         1 79F      -0.137000
     11 C5           8.4590    -0.8120    -1.1230 ca         1 79F      -0.141000
     12 C6           7.1220    -1.1390    -0.9550 ca         1 79F      -0.105500
     13 C17          1.0140     0.6490    -0.8880 c3         1 79F      -0.092200
     14 P18          0.5640     1.9860     0.3030 p5         1 79F       1.215500
     15 O19          0.8930     1.4830     1.6870 o          1 79F      -0.838000
     16 O20          1.1670     3.2750    -0.2030 o          1 79F      -0.838000
     17 N21         -1.1160     2.0860     0.0610 n7         1 79F      -0.924300
     18 C23         -2.0550     1.3070     0.8220 c3         1 79F       0.177500
     19 C47         -2.4670     1.9590     2.1420 c3         1 79F       0.107400
     20 O50         -3.0280     3.2200     1.8660 oh         1 79F      -0.577800
     21 O12          4.3410    -0.4290    -0.1230 os         1 79F      -0.450900
     22 O14          2.4260    -1.5190     0.3450 o          1 79F      -0.608000
     23 N15          2.4410     0.4060    -0.8740 ns         1 79F      -0.510900
     24 C26         -5.2850    -0.4170    -0.1040 c3         1 79F      -0.035300
     25 C28         -4.6450    -2.8980    -0.4750 c3         1 79F      -0.064700
     26 C29         -4.6010    -2.7680    -1.9940 c3         1 79F      -0.080100
     27 C41         -6.3480     0.4850     0.5740 c          1 79F       0.924600
     28 O42         -7.4810     0.4470     0.0510 o          1 79F      -0.840300
     29 O43         -6.0010     1.1360     1.5730 o          1 79F      -0.840300
     30 H1           6.8950    -0.7880     2.4010 ha         1 79F       0.137000
     31 H2           9.2750    -0.2160     2.1090 ha         1 79F       0.119500
     32 H3           4.8650    -2.4330     0.0150 h1         1 79F       0.049200
     33 H4           4.8480    -1.5600     1.5500 h1         1 79F       0.049200
     34 H5          -3.6280    -0.5910     1.1700 hn         1 79F       0.283500
     35 H6          -5.6100    -2.0540     1.2530 hc         1 79F       0.037700
     36 H7          -6.6160    -2.0850    -0.1810 hc         1 79F       0.037700
     37 H8          -6.0460    -4.5550    -0.4390 hc         1 79F       0.020033
     38 H9          -4.3560    -5.0550    -0.4790 hc         1 79F       0.020033
     39 H10         -5.0550    -4.4310     1.0140 hc         1 79F       0.020033
     40 H11         10.2840    -0.2270    -0.1530 ha         1 79F       0.115000
     41 H12          8.8950    -0.8200    -2.1140 ha         1 79F       0.119500
     42 H13          6.5240    -1.4040    -1.8190 ha         1 79F       0.137000
     43 H14          0.4960    -0.2780    -0.6450 h1         1 79F       0.061700
     44 H15          0.7120     0.9270    -1.9000 h1         1 79F       0.061700
     45 H17         -1.4620     2.9960    -0.2050 hn         1 79F       0.417800
     46 H18         -1.5810     0.3560     1.0890 h1         1 79F       0.051700
     47 H19         -3.1780     1.3080     2.6660 h1         1 79F       0.027700
     48 H20         -1.5670     2.0380     2.7620 h1         1 79F       0.027700
     49 H21         -3.3030     3.6130     2.6990 ho         1 79F       0.379000
     50 H22          3.0320     1.1680    -1.1680 hn         1 79F       0.317500
     51 H23         -5.3360    -0.2410    -1.1810 h1         1 79F       0.060700
     52 H24         -3.6350    -2.7150    -0.0920 hc         1 79F       0.049700
     53 H25         -4.2510    -1.7850    -2.3120 hc         1 79F       0.020033
     54 H26         -3.9260    -3.5080    -2.4270 hc         1 79F       0.020033
     55 H27         -5.5910    -2.9290    -2.4290 hc         1 79F       0.020033
     56 O45         -3.6670     1.7350    -0.9230 o          1 79F      -0.614100
@<TRIPOS>BOND
     1     1     2 ar  
     2     1     3 ar  
     3     1    30 1   
     4     2    10 ar  
     5     2    31 1   
     6     3     4 1   
     7     3    12 ar  
     8     4    21 1   
     9     4    32 1   
    10     4    33 1   
    11     5    21 1   
    12     5    22 2   
    13     5    23 1   
    14     6     7 1   
    15     6    18 1   
    16     6    56 2   
    17     7    24 1   
    18     7    34 1   
    19     8    24 1   
    20     8    25 1   
    21     8    35 1   
    22     8    36 1   
    23     9    25 1   
    24     9    37 1   
    25     9    38 1   
    26     9    39 1   
    27    10    11 ar  
    28    10    40 1   
    29    11    12 ar  
    30    11    41 1   
    31    12    42 1   
    32    13    14 1   
    33    13    23 1   
    34    13    43 1   
    35    13    44 1   
    36    14    15 1   
    37    14    16 1   
    38    14    17 1   
    39    17    18 1   
    40    17    45 1   
    41    18    19 1   
    42    18    46 1   
    43    19    20 1   
    44    19    47 1   
    45    19    48 1   
    46    20    49 1   
    47    23    50 1   
    48    24    27 1   
    49    24    51 1   
    50    25    26 1   
    51    25    52 1   
    52    26    53 1   
    53    26    54 1   
    54    26    55 1   
    55    27    28 1   
    56    27    29 1   
@<TRIPOS>SUBSTRUCTURE
     1 79F         1 TEMP              0 ****  ****    0 ROOT
