@<TRIPOS>MOLECULE
79G
   80    83     1     0     0
SMALL
No Charge or Current Charge


@<TRIPOS>ATOM
      1 C31          8.2650     3.9570     1.4760 c3         1 79G       0.145900
      2 O39          6.8280     3.9870     1.3960 os         1 79G      -0.334100
      3 C2           6.1020     2.9550     0.8370 ca         1 79G       0.197100
      4 C12          4.7050     3.0790     0.8110 ca         1 79G      -0.198000
      5 C10          3.9090     2.0630     0.2580 ca         1 79G       0.026500
      6 C4           6.7090     1.8000     0.2990 ca         1 79G      -0.198000
      7 C6           5.9180     0.7800    -0.2560 ca         1 79G       0.026500
      8 C8           4.5160     0.9100    -0.2720 ca         1 79G      -0.338500
      9 S8           3.4860    -0.3860    -0.9590 sy         1 79G       1.200600
     10 O9           2.5120     0.2390    -1.8610 o          1 79G      -0.550000
     11 O10          4.2940    -1.5200    -1.4160 o          1 79G      -0.550000
     12 N11          2.5800    -0.9060     0.3980 n3         1 79G      -0.793500
     13 C17          3.1400    -2.0600     1.1510 c3         1 79G       0.227800
     14 C18          4.4690    -1.7950     1.9130 c3         1 79G      -0.087700
     15 C20          4.3310    -0.6680     2.9650 c3         1 79G      -0.087600
     16 C19          4.9980    -3.0920     2.5660 c3         1 79G      -0.087600
     17 C21          1.0980    -0.9820     0.2260 c3         1 79G       0.195800
     18 C22          0.5410    -2.1110    -0.7090 c3         1 79G       0.154300
     19 O18          0.6770    -1.7420    -2.0990 oh         1 79G      -0.676000
     20 C23         -0.9520    -2.4350    -0.4000 c3         1 79G       0.088700
     21 C24         -1.4740    -3.6840    -1.1530 c3         1 79G      -0.045100
     22 C30         -2.9210    -4.0190    -0.8040 ca         1 79G      -0.079300
     23 C25         -3.9610    -3.7220    -1.7080 ca         1 79G      -0.102000
     24 C26         -5.2950    -4.0180    -1.3770 ca         1 79G      -0.107000
     25 C27         -5.5970    -4.6130    -0.1400 ca         1 79G      -0.110000
     26 C28         -4.5640    -4.9120     0.7640 ca         1 79G      -0.107000
     27 C29         -3.2310    -4.6150     0.4340 ca         1 79G      -0.102000
     28 N20         -1.8290    -1.2800    -0.6610 ns         1 79G      -0.501900
     29 C1          -2.4160    -0.4900     0.3020 c          1 79G       0.624700
     30 O22         -2.1950    -0.6660     1.4920 o          1 79G      -0.618100
     31 C3          -3.3360     0.6050    -0.1920 ca         1 79G      -0.191600
     32 C5          -3.9430     1.4700     0.7460 ca         1 79G      -0.005000
     33 C9          -4.8080     2.5080     0.3340 ca         1 79G      -0.169300
     34 C14         -5.4600     3.4460     1.3590 c6         1 79G       0.220800
     35 N1          -4.5420     3.8600     2.4320 n8         1 79G      -0.985200
     36 C15         -6.0460     4.7030     0.6890 c6         1 79G      -0.120400
     37 C16         -6.8280     4.2930    -0.5690 c6         1 79G       0.164600
     38 O1          -5.9540     3.6290    -1.5030 os         1 79G      -0.342100
     39 C11         -5.0920     2.6540    -1.0430 ca         1 79G       0.172100
     40 C13         -4.4870     1.8090    -1.9810 ca         1 79G      -0.161000
     41 C7          -3.6150     0.7900    -1.5670 ca         1 79G      -0.044000
     42 H1           8.6370     4.8720     1.9550 h1         1 79G       0.046700
     43 H2           8.6050     3.1000     2.0710 h1         1 79G       0.046700
     44 H3           8.7110     3.8930     0.4760 h1         1 79G       0.046700
     45 H4           4.2360     3.9670     1.2250 ha         1 79G       0.129000
     46 H5           2.8240     2.1680     0.2520 ha         1 79G       0.134500
     47 H6           7.7880     1.6760     0.3030 ha         1 79G       0.129000
     48 H7           6.4000    -0.1070    -0.6660 ha         1 79G       0.134500
     49 H8           2.4110    -2.3880     1.9050 h1         1 79G       0.062200
     50 H9           3.2820    -2.9160     0.4780 h1         1 79G       0.062200
     51 H10          5.2290    -1.4840     1.1890 hc         1 79G       0.049700
     52 H11          3.6000    -0.9420     3.7350 hc         1 79G       0.036867
     53 H12          5.2920    -0.4770     3.4560 hc         1 79G       0.036867
     54 H13          4.0010     0.2680     2.5020 hc         1 79G       0.036867
     55 H14          5.1490    -3.8730     1.8110 hc         1 79G       0.036867
     56 H15          5.9600    -2.9130     3.0610 hc         1 79G       0.036867
     57 H16          4.2920    -3.4710     3.3150 hc         1 79G       0.036867
     58 H17          0.6510    -1.1340     1.2180 h1         1 79G       0.067700
     59 H18          0.7010    -0.0160    -0.1140 h1         1 79G       0.067700
     60 H19          1.1170    -3.0240    -0.5090 h1         1 79G       0.061700
     61 H20          1.2910    -0.9650    -2.1270 ho         1 79G       0.477000
     62 H21         -1.0110    -2.6770     0.6700 h1         1 79G       0.084700
     63 H22         -1.3740    -3.5270    -2.2340 hc         1 79G       0.060200
     64 H23         -0.8300    -4.5390    -0.9130 hc         1 79G       0.060200
     65 H24         -3.7380    -3.2570    -2.6660 ha         1 79G       0.107000
     66 H25         -6.0930    -3.7850    -2.0770 ha         1 79G       0.111000
     67 H26         -6.6290    -4.8420     0.1160 ha         1 79G       0.110000
     68 H27         -4.7970    -5.3720     1.7220 ha         1 79G       0.111000
     69 H28         -2.4380    -4.8470     1.1410 ha         1 79G       0.107000
     70 H29         -2.0390    -1.0580    -1.6230 hn         1 79G       0.318500
     71 H30         -3.7390     1.3350     1.8060 ha         1 79G       0.135000
     72 H31         -6.2830     2.8950     1.8380 h1         1 79G       0.024700
     73 H32         -5.0570     4.4540     3.0900 hn         1 79G       0.397500
     74 H33         -4.3000     3.0370     2.9920 hn         1 79G       0.397500
     75 H35         -6.7080     5.2360     1.3850 hc         1 79G       0.065200
     76 H36         -5.2450     5.3990     0.4060 hc         1 79G       0.065200
     77 H37         -7.6440     3.6090    -0.2960 h1         1 79G       0.056200
     78 H38         -7.2680     5.1750    -1.0550 h1         1 79G       0.056200
     79 H39         -4.7040     1.9390    -3.0390 ha         1 79G       0.131000
     80 H40         -3.1740     0.1510    -2.3280 ha         1 79G       0.112000
@<TRIPOS>BOND
     1     1     2 1   
     2     1    42 1   
     3     1    43 1   
     4     1    44 1   
     5     2     3 1   
     6     3     4 ar  
     7     3     6 ar  
     8     4     5 ar  
     9     4    45 1   
    10     5     8 ar  
    11     5    46 1   
    12     6     7 ar  
    13     6    47 1   
    14     7     8 ar  
    15     7    48 1   
    16     8     9 1   
    17     9    10 2   
    18     9    11 2   
    19     9    12 1   
    20    12    13 1   
    21    12    17 1   
    22    13    14 1   
    23    13    49 1   
    24    13    50 1   
    25    14    15 1   
    26    14    16 1   
    27    14    51 1   
    28    15    52 1   
    29    15    53 1   
    30    15    54 1   
    31    16    55 1   
    32    16    56 1   
    33    16    57 1   
    34    17    18 1   
    35    17    58 1   
    36    17    59 1   
    37    18    19 1   
    38    18    20 1   
    39    18    60 1   
    40    19    61 1   
    41    20    21 1   
    42    20    28 1   
    43    20    62 1   
    44    21    22 1   
    45    21    63 1   
    46    21    64 1   
    47    22    23 ar  
    48    22    27 ar  
    49    23    24 ar  
    50    23    65 1   
    51    24    25 ar  
    52    24    66 1   
    53    25    26 ar  
    54    25    67 1   
    55    26    27 ar  
    56    26    68 1   
    57    27    69 1   
    58    28    29 1   
    59    28    70 1   
    60    29    30 2   
    61    29    31 1   
    62    31    32 ar  
    63    31    41 ar  
    64    32    33 ar  
    65    32    71 1   
    66    33    34 1   
    67    33    39 ar  
    68    34    35 1   
    69    34    36 1   
    70    34    72 1   
    71    35    73 1   
    72    35    74 1   
    73    36    37 1   
    74    36    75 1   
    75    36    76 1   
    76    37    38 1   
    77    37    77 1   
    78    37    78 1   
    79    38    39 1   
    80    39    40 ar  
    81    40    41 ar  
    82    40    79 1   
    83    41    80 1   
@<TRIPOS>SUBSTRUCTURE
     1 79G         1 TEMP              0 ****  ****    0 ROOT
