@<TRIPOS>MOLECULE
79G
   80    83     1     0     0
SMALL
bcc


@<TRIPOS>ATOM
      1 C31          6.3690     4.5330     2.0040 c3         1 79G       0.122700
      2 O39          5.0190     4.2320     1.6960 os         1 79G      -0.310900
      3 C2           4.7470     3.1300     0.9910 ca         1 79G       0.197100
      4 C12          3.3970     2.9050     0.6940 ca         1 79G      -0.216000
      5 C10          3.0200     1.7970    -0.0320 ca         1 79G       0.008500
      6 C4           5.7100     2.2270     0.5410 ca         1 79G      -0.216000
      7 C6           5.3250     1.1110    -0.1840 ca         1 79G       0.008500
      8 C8           3.9860     0.8890    -0.4640 ca         1 79G      -0.338500
      9 S8           3.4920    -0.5590    -1.3420 sy         1 79G       1.342200
     10 O9           2.3850    -0.1560    -2.2100 o          1 79G      -0.620800
     11 O10          4.6830    -1.1510    -1.9280 o          1 79G      -0.620800
     12 N11          2.8790    -1.6300    -0.2700 n3         1 79G      -0.793500
     13 C17          3.7560    -2.5700     0.4270 c3         1 79G       0.227800
     14 C18          4.6340    -1.9710     1.5250 c3         1 79G      -0.087700
     15 C20          3.8280    -1.1560     2.5280 c3         1 79G      -0.087600
     16 C19          5.3900    -3.1030     2.2140 c3         1 79G      -0.087600
     17 C21          1.4620    -1.6020     0.0700 c3         1 79G       0.195800
     18 C22          0.6650    -2.6730    -0.6730 c3         1 79G       0.131100
     19 O18          0.7680    -2.5630    -2.0720 oh         1 79G      -0.613800
     20 C23         -0.8000    -2.6550    -0.2270 c3         1 79G       0.088700
     21 C24         -1.5850    -3.8280    -0.8360 c3         1 79G      -0.045100
     22 C30         -3.0220    -3.8220    -0.4030 ca         1 79G      -0.079300
     23 C25         -4.0010    -3.2050    -1.1770 ca         1 79G      -0.120000
     24 C26         -5.3220    -3.1550    -0.7510 ca         1 79G      -0.125000
     25 C27         -5.6840    -3.7310     0.4590 ca         1 79G      -0.128000
     26 C28         -4.7180    -4.3540     1.2380 ca         1 79G      -0.125000
     27 C29         -3.3990    -4.3960     0.8090 ca         1 79G      -0.120000
     28 N20         -1.4240    -1.3950    -0.5610 ns         1 79G      -0.568900
     29 C1          -2.1070    -0.6410     0.3250 c          1 79G       0.691700
     30 O22         -2.0870    -0.8660     1.5290 o          1 79G      -0.618100
     31 C3          -2.8830     0.5090    -0.2240 ca         1 79G      -0.191600
     32 C5          -3.4450     1.4000     0.6860 ca         1 79G      -0.023000
     33 C9          -4.2090     2.4890     0.2940 ca         1 79G      -0.169300
     34 C14         -4.8200     3.4430     1.2980 c6         1 79G       0.220800
     35 N1          -3.9670     3.6150     2.4630 n8         1 79G      -0.874800
     36 C15         -5.0450     4.7810     0.6100 c6         1 79G      -0.120400
     37 C16         -5.8120     4.5670    -0.6730 c6         1 79G       0.141400
     38 O1          -5.1120     3.7190    -1.5800 os         1 79G      -0.318900
     39 C11         -4.4080     2.6920    -1.0770 ca         1 79G       0.172100
     40 C13         -3.8500     1.8130    -2.0050 ca         1 79G      -0.179000
     41 C7          -3.1020     0.7330    -1.5830 ca         1 79G      -0.062000
     42 H1           6.3560     5.4700     2.5540 h1         1 79G       0.046700
     43 H2           6.8230     3.7610     2.6300 h1         1 79G       0.046700
     44 H3           6.9710     4.6600     1.1010 h1         1 79G       0.046700
     45 H4           2.6510     3.6130     1.0300 ha         1 79G       0.147000
     46 H5           1.9730     1.6560    -0.2650 ha         1 79G       0.152500
     47 H6           6.7620     2.3760     0.7400 ha         1 79G       0.147000
     48 H7           6.0850     0.4240    -0.5290 ha         1 79G       0.152500
     49 H8           3.0920    -3.3150     0.8730 h1         1 79G       0.062200
     50 H9           4.3710    -3.1080    -0.2950 h1         1 79G       0.062200
     51 H10          5.3750    -1.3140     1.0600 hc         1 79G       0.049700
     52 H11          3.0460    -1.7640     2.9900 hc         1 79G       0.036867
     53 H12          4.4700    -0.7810     3.3260 hc         1 79G       0.036867
     54 H13          3.3520    -0.2910     2.0630 hc         1 79G       0.036867
     55 H14          5.9560    -3.7030     1.4980 hc         1 79G       0.036867
     56 H15          6.0940    -2.7100     2.9470 hc         1 79G       0.036867
     57 H16          4.7020    -3.7700     2.7370 hc         1 79G       0.036867
     58 H17          1.3610    -1.7570     1.1450 h1         1 79G       0.067700
     59 H18          1.0430    -0.6160    -0.1300 h1         1 79G       0.067700
     60 H19          1.0690    -3.6530    -0.3860 h1         1 79G       0.061700
     61 H20          1.0910    -1.6850    -2.3130 ho         1 79G       0.438000
     62 H21         -0.8250    -2.7530     0.8600 h1         1 79G       0.084700
     63 H22         -1.5180    -3.7810    -1.9260 hc         1 79G       0.060200
     64 H23         -1.1020    -4.7580    -0.5270 hc         1 79G       0.060200
     65 H24         -3.7290    -2.7620    -2.1280 ha         1 79G       0.125000
     66 H25         -6.0680    -2.6700    -1.3670 ha         1 79G       0.129000
     67 H26         -6.7140    -3.6990     0.7910 ha         1 79G       0.128000
     68 H27         -4.9930    -4.8100     2.1810 ha         1 79G       0.129000
     69 H28         -2.6510    -4.8840     1.4240 ha         1 79G       0.125000
     70 H29         -1.4800    -1.1770    -1.5420 hn         1 79G       0.318500
     71 H30         -3.2770     1.2220     1.7400 ha         1 79G       0.153000
     72 H31         -5.8110     3.0450     1.5670 h1         1 79G       0.024700
     73 H32         -4.3760     4.3300     3.0530 hn         1 79G       0.342300
     74 H33         -3.9820     2.7770     3.0300 hn         1 79G       0.342300
     75 H35         -5.6180     5.4510     1.2550 hc         1 79G       0.065200
     76 H36         -4.0830     5.2600     0.4080 hc         1 79G       0.065200
     77 H37         -6.7940     4.1300    -0.4620 h1         1 79G       0.056200
     78 H38         -5.9720     5.5050    -1.2040 h1         1 79G       0.056200
     79 H39         -4.0140     1.9830    -3.0620 ha         1 79G       0.149000
     80 H40         -2.7100     0.0730    -2.3460 ha         1 79G       0.130000
@<TRIPOS>BOND
     1     1     2 1   
     2     1    42 1   
     3     1    43 1   
     4     1    44 1   
     5     2     3 1   
     6     3     4 ar  
     7     3     6 ar  
     8     4     5 ar  
     9     4    45 1   
    10     5     8 ar  
    11     5    46 1   
    12     6     7 ar  
    13     6    47 1   
    14     7     8 ar  
    15     7    48 1   
    16     8     9 1   
    17     9    10 2   
    18     9    11 2   
    19     9    12 1   
    20    12    13 1   
    21    12    17 1   
    22    13    14 1   
    23    13    49 1   
    24    13    50 1   
    25    14    15 1   
    26    14    16 1   
    27    14    51 1   
    28    15    52 1   
    29    15    53 1   
    30    15    54 1   
    31    16    55 1   
    32    16    56 1   
    33    16    57 1   
    34    17    18 1   
    35    17    58 1   
    36    17    59 1   
    37    18    19 1   
    38    18    20 1   
    39    18    60 1   
    40    19    61 1   
    41    20    21 1   
    42    20    28 1   
    43    20    62 1   
    44    21    22 1   
    45    21    63 1   
    46    21    64 1   
    47    22    23 ar  
    48    22    27 ar  
    49    23    24 ar  
    50    23    65 1   
    51    24    25 ar  
    52    24    66 1   
    53    25    26 ar  
    54    25    67 1   
    55    26    27 ar  
    56    26    68 1   
    57    27    69 1   
    58    28    29 1   
    59    28    70 1   
    60    29    30 2   
    61    29    31 1   
    62    31    32 ar  
    63    31    41 ar  
    64    32    33 ar  
    65    32    71 1   
    66    33    34 1   
    67    33    39 ar  
    68    34    35 1   
    69    34    36 1   
    70    34    72 1   
    71    35    73 1   
    72    35    74 1   
    73    36    37 1   
    74    36    75 1   
    75    36    76 1   
    76    37    38 1   
    77    37    77 1   
    78    37    78 1   
    79    38    39 1   
    80    39    40 ar  
    81    40    41 ar  
    82    40    79 1   
    83    41    80 1   
@<TRIPOS>SUBSTRUCTURE
     1 79G         1 TEMP              0 ****  ****    0 ROOT
