@<TRIPOS>MOLECULE
79H
   46    48     1     0     0
SMALL
bcc


@<TRIPOS>ATOM
      1 C16         -1.3020    -1.5770     1.2660 cc         1 79H       0.341200
      2 N3           2.3960     4.5350    -0.6670 n1         1 79H      -0.371800
      3 C6           3.3020     2.1770    -0.2490 cc         1 79H      -0.181300
      4 C7           4.6530     1.7320    -0.2570 cc         1 79H       0.357200
      5 N1           4.7460     0.4640     0.0240 nd         1 79H      -0.456800
      6 N2           3.4740     0.0510     0.2040 n          1 79H       0.043300
      7 C8           3.1280    -1.2510     0.5490 c          1 79H       0.632300
      8 O            3.9570    -2.0710     0.8300 o          1 79H      -0.512500
      9 C3           1.6460    -1.5100     0.4680 c6         1 79H      -0.247000
     10 C1           1.3180    -2.3170    -0.8390 c3         1 79H      -0.040700
     11 C2           1.8210    -1.6300    -2.1030 c3         1 79H      -0.099600
     12 C            1.8090    -3.7560    -0.7540 c3         1 79H      -0.099600
     13 C5           2.5610     1.0560     0.0600 cd         1 79H       0.198100
     14 N            1.2320     0.9170     0.2630 nf         1 79H      -0.572100
     15 C4           0.7890    -0.2710     0.5100 ce         1 79H       0.579900
     16 C10         -0.6090    -0.4400     0.7900 cc         1 79H      -0.375200
     17 N6          -2.5820    -1.3270     1.4070 nd         1 79H      -0.518800
     18 N4          -2.7430    -0.0520     1.0290 na         1 79H       0.115400
     19 C11         -1.6030     0.5210     0.6540 cd         1 79H      -0.047300
     20 C12         -4.0710     0.5250     0.9860 c3         1 79H       0.052300
     21 C13         -4.9090    -0.1110    -0.1190 c3         1 79H       0.147800
     22 N5          -6.1870     0.5560    -0.2530 n3         1 79H      -0.716600
     23 C15         -6.0760     1.8110    -0.9690 c3         1 79H       0.149100
     24 C14         -7.1740    -0.3020    -0.8740 c3         1 79H       0.149100
     25 H1          -0.9090    -2.5490     1.5260 h4         1 79H       0.043100
     26 H2           5.5320     2.3220    -0.4620 h4         1 79H       0.053100
     27 H3           1.3900    -2.1500     1.3170 hc         1 79H       0.106700
     28 H4           0.2270    -2.3480    -0.8860 hc         1 79H       0.061700
     29 H5           1.4700    -0.6010    -2.1950 hc         1 79H       0.045867
     30 H6           2.9110    -1.6280    -2.1660 hc         1 79H       0.045867
     31 H7           1.4510    -2.1670    -2.9760 hc         1 79H       0.045867
     32 H8           1.4540    -4.2490     0.1510 hc         1 79H       0.045867
     33 H9           1.4270    -4.3150    -1.6100 hc         1 79H       0.045867
     34 H10          2.8960    -3.8290    -0.7760 hc         1 79H       0.045867
     35 H11         -1.5550     1.5420     0.3130 h4         1 79H       0.196000
     36 H12         -4.5460     0.3820     1.9560 h1         1 79H       0.075700
     37 H13         -3.9430     1.5940     0.8300 h1         1 79H       0.075700
     38 H14         -4.3350    -0.1120    -1.0610 h1         1 79H       0.049200
     39 H15         -5.0840    -1.1560     0.1440 h1         1 79H       0.049200
     40 H17         -5.7320     1.6820    -2.0060 h1         1 79H       0.034033
     41 H18         -7.0470     2.3080    -0.9990 h1         1 79H       0.034033
     42 H19         -5.3830     2.4900    -0.4720 h1         1 79H       0.034033
     43 H20         -7.3120    -1.2080    -0.2830 h1         1 79H       0.034033
     44 H21         -8.1340     0.2140    -0.9220 h1         1 79H       0.034033
     45 H22         -6.9070    -0.6040    -1.8990 h1         1 79H       0.034033
     46 C9           2.8010     3.4720    -0.4780 cg         1 79H       0.282800
@<TRIPOS>BOND
     1     1    16 1   
     2     1    17 2   
     3     1    25 1   
     4     2    46 3   
     5     3     4 1   
     6     3    13 2   
     7     3    46 1   
     8     4     5 2   
     9     4    26 1   
    10     5     6 1   
    11     6     7 1   
    12     6    13 1   
    13     7     8 2   
    14     7     9 1   
    15     9    10 1   
    16     9    15 1   
    17     9    27 1   
    18    10    11 1   
    19    10    12 1   
    20    10    28 1   
    21    11    29 1   
    22    11    30 1   
    23    11    31 1   
    24    12    32 1   
    25    12    33 1   
    26    12    34 1   
    27    13    14 1   
    28    14    15 2   
    29    15    16 1   
    30    16    19 2   
    31    17    18 1   
    32    18    19 1   
    33    18    20 1   
    34    19    35 1   
    35    20    21 1   
    36    20    36 1   
    37    20    37 1   
    38    21    22 1   
    39    21    38 1   
    40    21    39 1   
    41    22    23 1   
    42    22    24 1   
    43    23    40 1   
    44    23    41 1   
    45    23    42 1   
    46    24    43 1   
    47    24    44 1   
    48    24    45 1   
@<TRIPOS>SUBSTRUCTURE
     1 79H         1 TEMP              0 ****  ****    0 ROOT
