@<TRIPOS>MOLECULE
79H
   46    48     1     0     0
SMALL
No Charge or Current Charge


@<TRIPOS>ATOM
      1 C16         -1.3340    -1.8030     0.8900 cc         1 79H       0.275900
      2 N3           2.0270     4.0350    -2.2790 n1         1 79H      -0.461000
      3 C6           3.0180     2.0720    -0.9190 cc         1 79H      -0.116000
      4 C7           4.3570     1.9990    -0.4930 cc         1 79H       0.291900
      5 N1           4.6250     0.9160     0.2190 nd         1 79H      -0.456800
      6 N2           3.4000     0.2170     0.2440 n          1 79H       0.094000
      7 C8           3.0430    -0.9920     0.8610 c          1 79H       0.556800
      8 O            3.7600    -1.5480     1.6850 o          1 79H      -0.437000
      9 C3           1.6470    -1.5380     0.5100 c6         1 79H      -0.247000
     10 C1           1.7430    -2.6540    -0.5980 c3         1 79H      -0.040700
     11 C2           2.4040    -2.1940    -1.9220 c3         1 79H      -0.099600
     12 C            2.4140    -3.9510    -0.0870 c3         1 79H      -0.099600
     13 C5           2.4380     0.9470    -0.4250 cd         1 79H       0.147400
     14 N            1.0890     0.6700    -0.5370 nf         1 79H      -0.572100
     15 C4           0.6720    -0.4220     0.0730 ce         1 79H       0.579900
     16 C10         -0.7250    -0.6120     0.4500 cc         1 79H      -0.309900
     17 N6          -2.6200    -1.7020     1.1500 nd         1 79H      -0.518800
     18 N4          -2.8760    -0.3730     0.8610 na         1 79H       0.136800
     19 C11         -1.7370     0.3100     0.4280 cd         1 79H      -0.080000
     20 C12         -4.2270     0.1900     1.0060 c3         1 79H       0.081600
     21 C13         -5.0090     0.2080    -0.3280 c3         1 79H       0.147800
     22 N5          -6.4130     0.6960    -0.2330 n3         1 79H      -0.716600
     23 C15         -6.5310     2.1020     0.2260 c3         1 79H       0.149100
     24 C14         -7.1710     0.4610    -1.4840 c3         1 79H       0.149100
     25 H1          -0.8670    -2.7690     1.0280 h4         1 79H       0.043100
     26 H2           5.1450     2.7180    -0.6730 h4         1 79H       0.053100
     27 H3           1.2820    -2.0330     1.4180 hc         1 79H       0.106700
     28 H4           0.7160    -2.9420    -0.8620 hc         1 79H       0.061700
     29 H5           1.8760    -1.3370    -2.3550 hc         1 79H       0.045867
     30 H6           3.4540    -1.9160    -1.7700 hc         1 79H       0.045867
     31 H7           2.3770    -3.0020    -2.6640 hc         1 79H       0.045867
     32 H8           1.9260    -4.3100     0.8270 hc         1 79H       0.045867
     33 H9           2.3390    -4.7460    -0.8390 hc         1 79H       0.045867
     34 H10          3.4770    -3.7920     0.1290 hc         1 79H       0.045867
     35 H11         -1.7440     1.3580     0.1470 h4         1 79H       0.178000
     36 H12         -4.7810    -0.4040     1.7420 h1         1 79H       0.075700
     37 H13         -4.1300     1.2090     1.3960 h1         1 79H       0.075700
     38 H14         -4.4500     0.8180    -1.0500 h1         1 79H       0.049200
     39 H15         -5.0090    -0.8200    -0.7160 h1         1 79H       0.049200
     40 H17         -6.0180     2.7840    -0.4650 h1         1 79H       0.034033
     41 H18         -7.5850     2.4030     0.2840 h1         1 79H       0.034033
     42 H19         -6.0980     2.2320     1.2270 h1         1 79H       0.034033
     43 H20         -7.1450    -0.6020    -1.7600 h1         1 79H       0.034033
     44 H21         -8.2230     0.7500    -1.3620 h1         1 79H       0.034033
     45 H22         -6.7470     1.0420    -2.3140 h1         1 79H       0.034033
     46 C9           2.4590     3.1410    -1.6640 cg         1 79H       0.372000
@<TRIPOS>BOND
     1     1    16 1   
     2     1    17 2   
     3     1    25 1   
     4     2    46 3   
     5     3     4 1   
     6     3    13 2   
     7     3    46 1   
     8     4     5 2   
     9     4    26 1   
    10     5     6 1   
    11     6     7 1   
    12     6    13 1   
    13     7     8 2   
    14     7     9 1   
    15     9    10 1   
    16     9    15 1   
    17     9    27 1   
    18    10    11 1   
    19    10    12 1   
    20    10    28 1   
    21    11    29 1   
    22    11    30 1   
    23    11    31 1   
    24    12    32 1   
    25    12    33 1   
    26    12    34 1   
    27    13    14 1   
    28    14    15 2   
    29    15    16 1   
    30    16    19 2   
    31    17    18 1   
    32    18    19 1   
    33    18    20 1   
    34    19    35 1   
    35    20    21 1   
    36    20    36 1   
    37    20    37 1   
    38    21    22 1   
    39    21    38 1   
    40    21    39 1   
    41    22    23 1   
    42    22    24 1   
    43    23    40 1   
    44    23    41 1   
    45    23    42 1   
    46    24    43 1   
    47    24    44 1   
    48    24    45 1   
@<TRIPOS>SUBSTRUCTURE
     1 79H         1 TEMP              0 ****  ****    0 ROOT
