@<TRIPOS>MOLECULE
79I
   24    24     1     0     0
SMALL
abcg2


@<TRIPOS>ATOM
      1 C16        -17.1850    19.7880   -29.7850 c2         1 79I       0.420200
      2 C12        -18.3750    21.9540   -24.4030 c5         1 79I       0.101000
      3 C14        -16.2290    21.3720   -25.1610 c          1 79I       0.563000
      4 C11        -18.5340    21.3530   -25.8000 c5         1 79I      -0.095400
      5 C10        -17.2180    20.6100   -26.0330 c5         1 79I      -0.156700
      6 C8         -17.7640    19.8090   -28.4000 c3         1 79I       0.103200
      7 C9         -16.7630    20.5170   -27.4820 c3         1 79I      -0.056400
      8 N7         -17.9690    18.4320   -27.9740 n8         1 79I      -0.999200
      9 N13        -16.9410    22.1230   -24.3040 ns         1 79I      -0.515900
     10 N17        -17.6430    20.5120   -30.7140 n2         1 79I      -0.751100
     11 H1         -16.3340    19.1100   -29.9050 h4         1 79I      -0.022200
     12 H2         -18.8920    22.9060   -24.2940 h1         1 79I       0.044200
     13 H3         -18.7480    21.2780   -23.6280 h1         1 79I       0.044200
     14 H4         -19.4130    20.7140   -25.8750 hc         1 79I       0.057200
     15 H5         -18.6400    22.1520   -26.5380 hc         1 79I       0.057200
     16 H7         -17.2810    19.6040   -25.5980 hc         1 79I       0.076700
     17 H17        -18.6860    20.4050   -28.4370 h1         1 79I       0.041700
     18 H18        -16.6030    21.5270   -27.8690 hc         1 79I       0.066200
     19 H19        -15.8010    19.9980   -27.5280 hc         1 79I       0.066200
     20 H33        -18.3520    18.4100   -27.0380 hn         1 79I       0.398000
     21 H34        -16.5040    22.6320   -23.5510 hn         1 79I       0.328500
     22 H35        -17.1050    20.3780   -31.5660 hn         1 79I       0.379400
     23 H9         -18.6720    17.9980   -28.5600 hn         1 79I       0.398000
     24 O15        -15.0120    21.3040   -25.2230 o          1 79I      -0.549000
@<TRIPOS>BOND
     1     1     6 1   
     2     1    10 2   
     3     1    11 1   
     4     2     4 1   
     5     2     9 1   
     6     2    12 1   
     7     2    13 1   
     8     3     5 1   
     9     3     9 1   
    10     3    24 2   
    11     4     5 1   
    12     4    14 1   
    13     4    15 1   
    14     5     7 1   
    15     5    16 1   
    16     6     7 1   
    17     6     8 1   
    18     6    17 1   
    19     7    18 1   
    20     7    19 1   
    21     8    20 1   
    22     8    23 1   
    23     9    21 1   
    24    10    22 1   
@<TRIPOS>SUBSTRUCTURE
     1 79I         1 TEMP              0 ****  ****    0 ROOT
