@<TRIPOS>MOLECULE
79I
   24    24     1     0     0
SMALL
No Charge or Current Charge


@<TRIPOS>ATOM
      1 C16        -17.1540    19.8920   -29.8890 c2         1 79I       0.420200
      2 C12        -18.3940    21.8970   -24.3120 c5         1 79I       0.101000
      3 C14        -16.2050    21.2960   -25.0370 c          1 79I       0.563000
      4 C11        -18.4770    21.5180   -25.8160 c5         1 79I      -0.095400
      5 C10        -17.2140    20.6250   -25.9790 c5         1 79I      -0.156700
      6 C8         -17.6860    19.8210   -28.4430 c3         1 79I       0.103200
      7 C9         -16.6940    20.4670   -27.4380 c3         1 79I      -0.056400
      8 N7         -18.0430    18.4340   -28.0110 n8         1 79I      -0.999200
      9 N13        -16.9480    22.0250   -24.1480 ns         1 79I      -0.515900
     10 N17        -17.9030    19.7220   -30.9250 n2         1 79I      -0.751100
     11 H1         -16.0930    20.0860   -30.0210 h4         1 79I      -0.022200
     12 H2         -18.9330    22.8280   -24.0910 h1         1 79I       0.044200
     13 H3         -18.7980    21.1000   -23.6730 h1         1 79I       0.044200
     14 H4         -19.4100    21.0030   -26.0690 hc         1 79I       0.057200
     15 H5         -18.4130    22.4160   -26.4430 hc         1 79I       0.057200
     16 H7         -17.4320    19.6390   -25.5530 hc         1 79I       0.076700
     17 H17        -18.6120    20.4130   -28.4160 h1         1 79I       0.041700
     18 H18        -16.4150    21.4570   -27.8220 hc         1 79I       0.066200
     19 H19        -15.7680    19.8770   -27.4340 hc         1 79I       0.066200
     20 H33        -18.5240    18.4780   -27.1060 hn         1 79I       0.398000
     21 H34        -16.4710    22.6200   -23.4800 hn         1 79I       0.328500
     22 H35        -17.3230    19.8070   -31.7740 hn         1 79I       0.379400
     23 H9         -18.7600    18.0660   -28.6500 hn         1 79I       0.398000
     24 O15        -14.9930    21.3980   -25.1370 o          1 79I      -0.549000
@<TRIPOS>BOND
     1     1     6 1   
     2     1    10 2   
     3     1    11 1   
     4     2     4 1   
     5     2     9 1   
     6     2    12 1   
     7     2    13 1   
     8     3     5 1   
     9     3     9 1   
    10     3    24 2   
    11     4     5 1   
    12     4    14 1   
    13     4    15 1   
    14     5     7 1   
    15     5    16 1   
    16     6     7 1   
    17     6     8 1   
    18     6    17 1   
    19     7    18 1   
    20     7    19 1   
    21     8    20 1   
    22     8    23 1   
    23     9    21 1   
    24    10    22 1   
@<TRIPOS>SUBSTRUCTURE
     1 79I         1 TEMP              0 ****  ****    0 ROOT
