@<TRIPOS>MOLECULE
79J
   44    44     1     0     0
SMALL
No Charge or Current Charge


@<TRIPOS>ATOM
      1 C1           0.2370     2.9010    -0.7910 c          1 79J       0.693000
      2 C10         -1.5600    -3.0450    -0.2080 c          1 79J       0.602100
      3 C11         -1.8520    -4.0460    -1.3190 c3         1 79J      -0.182100
      4 O1B          0.3350     4.1200    -0.6630 o          1 79J      -0.700500
      5 C2           0.2220     2.0990     0.6150 c6         1 79J       0.264000
      6 C3          -1.2010     1.5920     0.9610 c6         1 79J      -0.102400
      7 C4          -1.5880     0.3760     0.0800 c6         1 79J       0.165300
      8 O4          -2.9070    -0.1040     0.4260 os         1 79J      -0.456100
      9 C5          -0.5390    -0.7610     0.2460 c6         1 79J       0.071700
     10 C6           0.8760    -0.1940    -0.0790 c6         1 79J       0.170300
     11 C7           2.0280    -1.2050     0.2480 c3         1 79J       0.140300
     12 C8           3.3930    -0.7700    -0.3860 c3         1 79J       0.149300
     13 C9           4.5240    -1.8200    -0.1560 c3         1 79J       0.129600
     14 O10         -1.9000    -3.2330     0.9510 o          1 79J      -0.612100
     15 N5          -0.8730    -1.9230    -0.6130 ns         1 79J      -0.496900
     16 C           -4.0310     0.5840     0.0540 c          1 79J       0.592100
     17 O           -4.0300     1.5900    -0.6410 o          1 79J      -0.484000
     18 CH3         -5.2960    -0.1080     0.5410 c3         1 79J      -0.158100
     19 O1A          0.7460     2.3640    -1.7660 o          1 79J      -0.700500
     20 O2           0.6320     2.9990     1.6510 oh         1 79J      -0.679000
     21 O6           1.1530     0.9890     0.7300 os         1 79J      -0.517000
     22 O7           2.1680    -1.3470     1.6790 oh         1 79J      -0.736000
     23 O8           3.7830     0.5260     0.1230 oh         1 79J      -0.626000
     24 O9           5.6980    -1.5140    -0.9340 oh         1 79J      -0.712000
     25 H1          -0.9120    -4.3160    -1.8130 hc         1 79J       0.052367
     26 H2          -2.3900    -4.9310    -0.9610 hc         1 79J       0.052367
     27 H3          -2.3990    -3.5380    -2.1220 hc         1 79J       0.052367
     28 H4          -1.2470     1.3010     2.0190 hc         1 79J       0.056200
     29 H5          -1.9230     2.4090     0.8310 hc         1 79J       0.056200
     30 H6          -1.5940     0.6810    -0.9790 h1         1 79J       0.104700
     31 H7          -0.5470    -1.0850     1.2970 h1         1 79J       0.099700
     32 H8           0.9300     0.0500    -1.1490 h1         1 79J       0.079700
     33 H9           1.7620    -2.1740    -0.1980 h1         1 79J       0.062700
     34 H10          3.2320    -0.7030    -1.4710 h1         1 79J       0.074700
     35 H11          4.7750    -1.8550     0.9130 h1         1 79J       0.021700
     36 H12          4.1440    -2.8120    -0.4350 h1         1 79J       0.021700
     37 H13         -0.6530    -1.8740    -1.6010 hn         1 79J       0.313500
     38 H14         -5.2520    -0.2000     1.6320 hc         1 79J       0.060033
     39 H15         -6.2100     0.3980     0.2090 hc         1 79J       0.060033
     40 H16         -5.2730    -1.1560     0.2200 hc         1 79J       0.060033
     41 H18          0.6900     3.8580     1.1630 ho         1 79J       0.493000
     42 H19          1.9840    -0.4440     2.0380 ho         1 79J       0.531000
     43 H20          2.9360     0.9790     0.3610 ho         1 79J       0.447000
     44 H21          6.3940    -2.1590    -0.6690 ho         1 79J       0.486000
@<TRIPOS>BOND
     1     1     4 1   
     2     1     5 1   
     3     1    19 1   
     4     2     3 1   
     5     2    14 2   
     6     2    15 1   
     7     3    25 1   
     8     3    26 1   
     9     3    27 1   
    10     5     6 1   
    11     5    20 1   
    12     5    21 1   
    13     6     7 1   
    14     6    28 1   
    15     6    29 1   
    16     7     8 1   
    17     7     9 1   
    18     7    30 1   
    19     8    16 1   
    20     9    10 1   
    21     9    15 1   
    22     9    31 1   
    23    10    11 1   
    24    10    21 1   
    25    10    32 1   
    26    11    12 1   
    27    11    22 1   
    28    11    33 1   
    29    12    13 1   
    30    12    23 1   
    31    12    34 1   
    32    13    24 1   
    33    13    35 1   
    34    13    36 1   
    35    15    37 1   
    36    16    17 2   
    37    16    18 1   
    38    18    38 1   
    39    18    39 1   
    40    18    40 1   
    41    20    41 1   
    42    22    42 1   
    43    23    43 1   
    44    24    44 1   
@<TRIPOS>SUBSTRUCTURE
     1 79J         1 TEMP              0 ****  ****    0 ROOT
