@<TRIPOS>MOLECULE
79J
   44    44     1     0     0
SMALL
abcg2


@<TRIPOS>ATOM
      1 C1           0.3730     2.8930    -0.7190 c          1 79J       0.693000
      2 C10         -1.2740    -2.9440    -0.3410 c          1 79J       0.602100
      3 C11         -1.5840    -3.8840    -1.4800 c3         1 79J      -0.182100
      4 O1B          1.0270     3.9540    -0.6330 o          1 79J      -0.700500
      5 C2           0.1660     2.1670     0.6450 c6         1 79J       0.264000
      6 C3          -1.2580     1.6820     0.8990 c6         1 79J      -0.102400
      7 C4          -1.6310     0.4730     0.0610 c6         1 79J       0.165300
      8 O4          -2.8610    -0.0940     0.5340 os         1 79J      -0.456100
      9 C5          -0.5890    -0.6290     0.1910 c6         1 79J       0.071700
     10 C6           0.8180    -0.0740    -0.0820 c6         1 79J       0.170300
     11 C7           1.9010    -1.0950     0.2950 c3         1 79J       0.140300
     12 C8           3.2200    -0.8560    -0.4520 c3         1 79J       0.149300
     13 C9           4.2930    -1.8160     0.0380 c3         1 79J       0.129600
     14 O10         -1.3520    -3.3010     0.8250 o          1 79J      -0.612100
     15 N5          -0.8860    -1.7090    -0.7150 ns         1 79J      -0.496900
     16 C           -4.0160     0.3430     0.0440 c          1 79J       0.592100
     17 O           -4.1090     1.2200    -0.7770 o          1 79J      -0.484000
     18 CH3         -5.1720    -0.3970     0.6500 c3         1 79J      -0.158100
     19 O1A         -0.0950     2.3700    -1.7400 o          1 79J      -0.700500
     20 O2           0.5430     3.0230     1.6520 oh         1 79J      -0.679000
     21 O6           1.0670     1.0600     0.7130 os         1 79J      -0.517000
     22 O7           2.0580    -1.1600     1.6950 oh         1 79J      -0.736000
     23 O8           3.6700     0.4800    -0.4440 oh         1 79J      -0.626000
     24 O9           5.3940    -1.7450    -0.8390 oh         1 79J      -0.712000
     25 H1          -0.8470    -4.6870    -1.4950 hc         1 79J       0.052367
     26 H2          -2.5590    -4.3410    -1.3180 hc         1 79J       0.052367
     27 H3          -1.5850    -3.4030    -2.4560 hc         1 79J       0.052367
     28 H4          -1.3390     1.4130     1.9580 hc         1 79J       0.056200
     29 H5          -1.9590     2.5000     0.7190 hc         1 79J       0.056200
     30 H6          -1.7330     0.7590    -0.9860 h1         1 79J       0.104700
     31 H7          -0.6140    -1.0260     1.2090 h1         1 79J       0.099700
     32 H8           0.9050     0.1550    -1.1510 h1         1 79J       0.079700
     33 H9           1.5560    -2.0830    -0.0270 h1         1 79J       0.062700
     34 H10          3.0160    -1.0880    -1.5050 h1         1 79J       0.074700
     35 H11          4.5770    -1.5530     1.0650 h1         1 79J       0.021700
     36 H12          3.8730    -2.8310     0.0750 h1         1 79J       0.021700
     37 H13         -0.8750    -1.4960    -1.7010 hn         1 79J       0.313500
     38 H14         -5.1790    -0.2690     1.7330 hc         1 79J       0.060033
     39 H15         -6.1120    -0.0360     0.2430 hc         1 79J       0.060033
     40 H16         -5.0860    -1.4660     0.4540 hc         1 79J       0.060033
     41 H18          1.0100     3.7380     1.1710 ho         1 79J       0.493000
     42 H19          1.9520    -0.2660     2.0430 ho         1 79J       0.531000
     43 H20          3.6650     0.8100     0.4590 ho         1 79J       0.447000
     44 H21          6.0970    -2.2910    -0.4770 ho         1 79J       0.486000
@<TRIPOS>BOND
     1     1     4 1   
     2     1     5 1   
     3     1    19 1   
     4     2     3 1   
     5     2    14 2   
     6     2    15 1   
     7     3    25 1   
     8     3    26 1   
     9     3    27 1   
    10     5     6 1   
    11     5    20 1   
    12     5    21 1   
    13     6     7 1   
    14     6    28 1   
    15     6    29 1   
    16     7     8 1   
    17     7     9 1   
    18     7    30 1   
    19     8    16 1   
    20     9    10 1   
    21     9    15 1   
    22     9    31 1   
    23    10    11 1   
    24    10    21 1   
    25    10    32 1   
    26    11    12 1   
    27    11    22 1   
    28    11    33 1   
    29    12    13 1   
    30    12    23 1   
    31    12    34 1   
    32    13    24 1   
    33    13    35 1   
    34    13    36 1   
    35    15    37 1   
    36    16    17 2   
    37    16    18 1   
    38    18    38 1   
    39    18    39 1   
    40    18    40 1   
    41    20    41 1   
    42    22    42 1   
    43    23    43 1   
    44    24    44 1   
@<TRIPOS>SUBSTRUCTURE
     1 79J         1 TEMP              0 ****  ****    0 ROOT
