@<TRIPOS>MOLECULE
79K
   51    53     1     0     0
SMALL
No Charge or Current Charge


@<TRIPOS>ATOM
      1 O12          0.4740     0.3050     3.7690 o          1 79K      -0.526500
      2 O13         -0.6240     2.3290     2.6230 o          1 79K      -0.526500
      3 O22          0.2610    -0.9280    -1.7620 o          1 79K      -0.494100
      4 C01          5.2290     2.2830    -1.7550 c3         1 79K      -0.085100
      5 C03          3.6620     0.9100    -3.1980 c3         1 79K      -0.085100
      6 C04          5.3710    -0.2250    -1.7480 c3         1 79K      -0.085100
      7 C05          3.3330     0.9810    -0.6910 ca         1 79K       0.007700
      8 C06          2.3750     2.0200    -0.6330 ca         1 79K      -0.129000
      9 C07          1.3880     2.0500     0.3650 ca         1 79K      -0.014500
     10 C08          1.3410     1.0360     1.3380 ca         1 79K      -0.326500
     11 C09          2.2890    -0.0020     1.3040 ca         1 79K      -0.014500
     12 C10          3.2730    -0.0280     0.3020 ca         1 79K      -0.129000
     13 C15         -0.9350    -1.3230     1.5670 ca         1 79K       0.281000
     14 C16         -0.9440    -2.2650     2.6120 ca         1 79K      -0.077000
     15 C17         -0.7160    -3.6280     2.3580 ca         1 79K      -0.076000
     16 C18         -0.4660    -4.0570     1.0480 ca         1 79K       0.110000
     17 C19         -0.4530    -3.1290    -0.0040 ca         1 79K      -0.060000
     18 C20         -0.7020    -1.7580     0.2380 ca         1 79K      -0.180600
     19 C21         -0.6250    -0.8050    -0.9260 c          1 79K       0.599300
     20 C23         -1.6630     0.2820    -1.0730 ca         1 79K      -0.216600
     21 C24         -1.3330     1.4840    -1.7370 ca         1 79K      -0.038000
     22 C25         -2.3000     2.4950    -1.8750 ca         1 79K      -0.237500
     23 C27         -3.9240     1.1390    -0.7450 ca         1 79K      -0.186800
     24 C28         -2.9810     0.1070    -0.5890 ca         1 79K      -0.038000
     25 N14         -1.1320     0.0170     1.8810 nu         1 79K      -0.741100
     26 N26         -3.5840     2.3300    -1.3730 na         1 79K       0.491300
     27 O29         -4.4200     3.2320    -1.4950 o          1 79K      -0.476000
     28 S11          0.0330     1.0210     2.5680 sy         1 79K       1.161600
     29 Cl1         -0.1640    -5.7590     0.7220 cl         1 79K      -0.181000
     30 H1           6.0080     2.2930    -2.5280 hc         1 79K       0.039256
     31 H2           4.6080     3.1740    -1.9020 hc         1 79K       0.039256
     32 H3           5.7210     2.3720    -0.7780 hc         1 79K       0.039256
     33 H4           4.3820     0.8700    -4.0250 hc         1 79K       0.039256
     34 H5           3.0310     0.0150    -3.2550 hc         1 79K       0.039256
     35 H6           3.0210     1.7840    -3.3620 hc         1 79K       0.039256
     36 H7           5.9310    -0.2170    -0.8050 hc         1 79K       0.039256
     37 H8           4.8340    -1.1790    -1.8280 hc         1 79K       0.039256
     38 H9           6.1010    -0.1900    -2.5650 hc         1 79K       0.039256
     39 H10          2.3810     2.8140    -1.3740 ha         1 79K       0.120000
     40 H11          0.6580     2.8580     0.3670 ha         1 79K       0.135500
     41 H12          2.2600    -0.8020     2.0430 ha         1 79K       0.135500
     42 H13          3.9760    -0.8540     0.3150 ha         1 79K       0.120000
     43 H14         -1.1300    -1.9350     3.6310 ha         1 79K       0.149000
     44 H15         -0.7250    -4.3460     3.1740 ha         1 79K       0.141000
     45 H16         -0.2490    -3.4780    -1.0140 ha         1 79K       0.144000
     46 H17         -0.3310     1.6360    -2.1390 ha         1 79K       0.150000
     47 H18         -2.0840     3.4360    -2.3770 h4         1 79K       0.175000
     48 H19         -4.9480     1.0440    -0.3890 h4         1 79K       0.175000
     49 H20         -3.2800    -0.8210    -0.1030 ha         1 79K       0.150000
     50 H21         -1.5200     0.5700     1.1290 hn         1 79K       0.336000
     51 C02          4.3900     0.9790    -1.8280 c3         1 79K      -0.008700
@<TRIPOS>BOND
     1     1    28 2   
     2     2    28 2   
     3     3    19 2   
     4     4    30 1   
     5     4    31 1   
     6     4    32 1   
     7     4    51 1   
     8     5    33 1   
     9     5    34 1   
    10     5    35 1   
    11     5    51 1   
    12     6    36 1   
    13     6    37 1   
    14     6    38 1   
    15     6    51 1   
    16     7     8 ar  
    17     7    12 ar  
    18     7    51 1   
    19     8     9 ar  
    20     8    39 1   
    21     9    10 ar  
    22     9    40 1   
    23    10    11 ar  
    24    10    28 1   
    25    11    12 ar  
    26    11    41 1   
    27    12    42 1   
    28    13    14 ar  
    29    13    18 ar  
    30    13    25 1   
    31    14    15 ar  
    32    14    43 1   
    33    15    16 ar  
    34    15    44 1   
    35    16    17 ar  
    36    16    29 1   
    37    17    18 ar  
    38    17    45 1   
    39    18    19 1   
    40    19    20 1   
    41    20    21 ar  
    42    20    24 ar  
    43    21    22 ar  
    44    21    46 1   
    45    22    26 1   
    46    22    47 1   
    47    23    24 ar  
    48    23    26 2   
    49    23    48 1   
    50    24    49 1   
    51    25    28 1   
    52    25    50 1   
    53    26    27 1   
@<TRIPOS>SUBSTRUCTURE
     1 79K         1 TEMP              0 ****  ****    0 ROOT
