@<TRIPOS>MOLECULE
79K
   51    53     1     0     0
SMALL
abcg2


@<TRIPOS>ATOM
      1 O12          0.7240    -0.0590     3.8140 o          1 79K      -0.526500
      2 O13         -0.2630     2.1530     3.1090 o          1 79K      -0.526500
      3 O22          0.6600    -0.9790    -1.4280 o          1 79K      -0.494100
      4 C01          5.0290     2.3100    -1.7460 c3         1 79K      -0.085100
      5 C03          3.2550     1.2050    -3.1340 c3         1 79K      -0.085100
      6 C04          4.9880    -0.1640    -1.9960 c3         1 79K      -0.085100
      7 C05          3.2000     1.0240    -0.6520 ca         1 79K       0.007700
      8 C06          2.2760     2.0510    -0.4360 ca         1 79K      -0.129000
      9 C07          1.3930     2.0220     0.6250 ca         1 79K      -0.014500
     10 C08          1.4380     0.9500     1.5100 ca         1 79K      -0.326500
     11 C09          2.3640    -0.0670     1.3450 ca         1 79K      -0.014500
     12 C10          3.2360    -0.0200     0.2680 ca         1 79K      -0.129000
     13 C15         -0.9350    -1.3120     1.6990 ca         1 79K       0.281000
     14 C16         -1.1090    -2.2590     2.7030 ca         1 79K      -0.077000
     15 C17         -0.9580    -3.6090     2.4460 ca         1 79K      -0.076000
     16 C18         -0.6240    -4.0170     1.1650 ca         1 79K       0.110000
     17 C19         -0.4370    -3.0950     0.1520 ca         1 79K      -0.060000
     18 C20         -0.5950    -1.7350     0.4070 ca         1 79K      -0.180600
     19 C21         -0.3260    -0.8170    -0.7450 c          1 79K       0.599300
     20 C23         -1.3160     0.2290    -1.0830 ca         1 79K      -0.216600
     21 C24         -0.9430     1.3120    -1.8780 ca         1 79K      -0.038000
     22 C25         -1.8610     2.2610    -2.2400 ca         1 79K      -0.237500
     23 C27         -3.5530     1.1060    -1.1090 ca         1 79K      -0.186800
     24 C28         -2.6550     0.1430    -0.7150 ca         1 79K      -0.038000
     25 N14         -1.0670     0.0490     2.0650 nu         1 79K      -0.741100
     26 N26         -3.1650     2.1670    -1.8600 na         1 79K       0.491300
     27 O29         -3.9940     3.0470    -2.2050 o          1 79K      -0.476000
     28 S11          0.2240     0.8270     2.7800 sy         1 79K       1.161600
     29 CL1         -0.4370    -5.7000     0.8250 cl         1 79K      -0.181000
     30 H1           5.6860     2.3770    -2.6150 hc         1 79K       0.039256
     31 H2           4.4630     3.2400    -1.6880 hc         1 79K       0.039256
     32 H3           5.6580     2.2440    -0.8560 hc         1 79K       0.039256
     33 H4           3.8900     1.1990    -4.0220 hc         1 79K       0.039256
     34 H5           2.5520     0.3740    -3.2130 hc         1 79K       0.039256
     35 H6           2.6800     2.1320    -3.1530 hc         1 79K       0.039256
     36 H7           5.6630    -0.2830    -1.1460 hc         1 79K       0.039256
     37 H8           4.3920    -1.0730    -2.0880 hc         1 79K       0.039256
     38 H9           5.6060    -0.0840    -2.8910 hc         1 79K       0.039256
     39 H10          2.2270     2.8950    -1.1130 ha         1 79K       0.120000
     40 H11          0.6810     2.8260     0.7550 ha         1 79K       0.135500
     41 H12          2.4130    -0.8970     2.0370 ha         1 79K       0.135500
     42 H13          3.9430    -0.8290     0.1560 ha         1 79K       0.120000
     43 H14         -1.3780    -1.9310     3.6960 ha         1 79K       0.149000
     44 H15         -1.1040    -4.3320     3.2370 ha         1 79K       0.141000
     45 H16         -0.1720    -3.4270    -0.8430 ha         1 79K       0.144000
     46 H17          0.0790     1.4310    -2.2130 ha         1 79K       0.150000
     47 H18         -1.6160     3.1240    -2.8400 h4         1 79K       0.175000
     48 H19         -4.6010     1.0740    -0.8530 h4         1 79K       0.175000
     49 H20         -3.0360    -0.6890    -0.1370 ha         1 79K       0.150000
     50 H21         -1.5890     0.6590     1.4460 hn         1 79K       0.336000
     51 C02          4.1140     1.0830    -1.8670 c3         1 79K      -0.008700
@<TRIPOS>BOND
     1     1    28 2   
     2     2    28 2   
     3     3    19 2   
     4     4    30 1   
     5     4    31 1   
     6     4    32 1   
     7     4    51 1   
     8     5    33 1   
     9     5    34 1   
    10     5    35 1   
    11     5    51 1   
    12     6    36 1   
    13     6    37 1   
    14     6    38 1   
    15     6    51 1   
    16     7     8 ar  
    17     7    12 ar  
    18     7    51 1   
    19     8     9 ar  
    20     8    39 1   
    21     9    10 ar  
    22     9    40 1   
    23    10    11 ar  
    24    10    28 1   
    25    11    12 ar  
    26    11    41 1   
    27    12    42 1   
    28    13    14 ar  
    29    13    18 ar  
    30    13    25 1   
    31    14    15 ar  
    32    14    43 1   
    33    15    16 ar  
    34    15    44 1   
    35    16    17 ar  
    36    16    29 1   
    37    17    18 ar  
    38    17    45 1   
    39    18    19 1   
    40    19    20 1   
    41    20    21 ar  
    42    20    24 ar  
    43    21    22 ar  
    44    21    46 1   
    45    22    26 1   
    46    22    47 1   
    47    23    24 ar  
    48    23    26 2   
    49    23    48 1   
    50    24    49 1   
    51    25    28 1   
    52    25    50 1   
    53    26    27 1   
@<TRIPOS>SUBSTRUCTURE
     1 79K         1 TEMP              0 ****  ****    0 ROOT
