@<TRIPOS>MOLECULE
79L
   86    88     1     0     0
SMALL
abcg2


@<TRIPOS>ATOM
      1 C29         -3.9790    -1.0180    -0.1770 c          1 79L       0.598100
      2 O37         -4.2380    -1.6160     0.8560 o          1 79L      -0.587100
      3 C30         -4.7180    -1.2820    -1.4810 c3         1 79L       0.088800
      4 N31         -5.0630    -2.6700    -1.6350 n3         1 79L      -0.693600
      5 O34         -5.2790    -5.1280    -3.0350 os         1 79L      -0.451000
      6 C36         -6.0530    -2.8630    -2.6800 c6         1 79L       0.125300
      7 C32         -3.8990    -3.4990    -1.8920 c6         1 79L       0.125300
      8 C35         -6.4160    -4.3310    -2.7840 c6         1 79L       0.153600
      9 C33         -4.3130    -4.9520    -2.0230 c6         1 79L       0.153600
     10 N28         -3.0540    -0.0510    -0.2640 ns         1 79L      -0.507900
     11 C27         -2.3040     0.4440     0.8630 c3         1 79L       0.037700
     12 C26         -0.9930     1.0200     0.3380 c          1 79L       0.601100
     13 O39         -0.8810     1.3950    -0.8180 o          1 79L      -0.615100
     14 C38         -3.0770     1.5120     1.6400 c3         1 79L      -0.108100
     15 N25         -0.0200     1.1140     1.2570 ns         1 79L      -0.487900
     16 C24          1.2720     1.7070     1.0030 c3         1 79L       0.031700
     17 C40          1.4730     2.9990     1.8050 c3         1 79L      -0.032100
     18 C41          0.4530     4.0370     1.4410 ca         1 79L      -0.122300
     19 C48          0.5730     4.7760     0.2640 ca         1 79L      -0.064500
     20 C47         -0.3810     5.7050    -0.1050 ca         1 79L      -0.169000
     21 C44         -1.5000     5.9210     0.7030 ca         1 79L       0.144100
     22 O45         -2.3830     6.8430     0.2680 os         1 79L      -0.340100
     23 C46         -3.5400     7.0810     1.0430 c3         1 79L       0.147900
     24 C43         -1.6350     5.1950     1.8820 ca         1 79L      -0.169000
     25 C42         -0.6610     4.2670     2.2340 ca         1 79L      -0.064500
     26 C23          2.3390     0.6810     1.3700 c          1 79L       0.588100
     27 O49          2.4630     0.3010     2.5220 o          1 79L      -0.590100
     28 N22          3.1040     0.2650     0.3460 ns         1 79L      -0.501900
     29 C8           4.0470    -0.8340     0.4320 c3         1 79L       0.068700
     30 C9           5.3990    -0.3600    -0.1220 c3         1 79L       0.170300
     31 O21          5.8620     0.7580     0.5980 oh         1 79L      -0.651000
     32 C10          6.4860    -1.4340    -0.0950 c3         1 79L      -0.052700
     33 C11          6.7800    -1.9580     1.3080 c3         1 79L      -0.083100
     34 C12          7.7470    -0.9060    -0.7720 c3         1 79L       0.166600
     35 O13          8.6300    -1.9860    -0.9900 oh         1 79L      -0.666000
     36 C7           3.5020    -2.0660    -0.3060 c3         1 79L      -0.048100
     37 C6           2.0620    -2.3350     0.0300 ca         1 79L      -0.090300
     38 C5           1.7070    -2.8560     1.2720 ca         1 79L      -0.101500
     39 C4           0.3760    -3.0610     1.6020 ca         1 79L      -0.111000
     40 C3          -0.6260    -2.7480     0.6910 ca         1 79L      -0.117000
     41 C2          -0.2840    -2.2310    -0.5500 ca         1 79L      -0.111000
     42 C1           1.0500    -2.0250    -0.8740 ca         1 79L      -0.101500
     43 H1          -5.6390    -0.6920    -1.4410 h1         1 79L       0.048700
     44 H2          -4.1420    -0.8890    -2.3350 h1         1 79L       0.048700
     45 H4          -6.9530    -2.2920    -2.4350 h1         1 79L       0.041700
     46 H5          -5.6950    -2.5030    -3.6590 h1         1 79L       0.041700
     47 H6          -3.3680    -3.1800    -2.8060 h1         1 79L       0.041700
     48 H7          -3.1940    -3.4200    -1.0620 h1         1 79L       0.041700
     49 H8          -7.1150    -4.4870    -3.6070 h1         1 79L       0.053950
     50 H9          -6.9100    -4.6500    -1.8550 h1         1 79L       0.053950
     51 H10         -4.7000    -5.3060    -1.0570 h1         1 79L       0.053950
     52 H11         -3.4480    -5.5640    -2.2850 h1         1 79L       0.053950
     53 H12         -2.8740     0.3840    -1.1560 hn         1 79L       0.336500
     54 H13         -2.0870    -0.3920     1.5320 h1         1 79L       0.085700
     55 H14         -3.2470     2.3980     1.0280 hc         1 79L       0.050033
     56 H15         -4.0420     1.1150     1.9530 hc         1 79L       0.050033
     57 H16         -2.5360     1.8190     2.5340 hc         1 79L       0.050033
     58 H17         -0.1870     0.7500     2.1830 hn         1 79L       0.332500
     59 H18          1.3170     1.9420    -0.0610 h1         1 79L       0.086700
     60 H19          1.4220     2.7720     2.8720 hc         1 79L       0.063200
     61 H20          2.4820     3.3690     1.6060 hc         1 79L       0.063200
     62 H21          1.4310     4.6260    -0.3820 ha         1 79L       0.109500
     63 H22         -0.2680     6.2710    -1.0220 ha         1 79L       0.123000
     64 H23         -4.1130     7.8430     0.5200 h1         1 79L       0.040700
     65 H24         -4.1570     6.1840     1.1430 h1         1 79L       0.040700
     66 H25         -3.2950     7.4510     2.0430 h1         1 79L       0.040700
     67 H26         -2.4850     5.3310     2.5380 ha         1 79L       0.123000
     68 H27         -0.7810     3.7170     3.1600 ha         1 79L       0.109500
     69 H28          2.8420     0.5680    -0.5810 hn         1 79L       0.311500
     70 H29          4.1540    -1.0690     1.4920 h1         1 79L       0.100700
     71 H30          5.2340    -0.0910    -1.1790 h1         1 79L       0.020700
     72 H31          5.2060     1.4580     0.5190 ho         1 79L       0.447000
     73 H32          6.1240    -2.2620    -0.7150 hc         1 79L       0.059700
     74 H33          7.1620    -1.1650     1.9520 hc         1 79L       0.042033
     75 H34          5.8930    -2.3760     1.7840 hc         1 79L       0.042033
     76 H35          7.5270    -2.7490     1.2760 hc         1 79L       0.042033
     77 H36          7.4710    -0.4250    -1.7220 h1         1 79L       0.025200
     78 H37          8.2090    -0.1360    -0.1430 h1         1 79L       0.025200
     79 H38          9.4500    -1.6360    -1.3490 ho         1 79L       0.444000
     80 H39          3.6090    -1.9210    -1.3860 hc         1 79L       0.056700
     81 H40          4.1140    -2.9330    -0.0470 hc         1 79L       0.056700
     82 H41          2.4820    -3.1000     1.9910 ha         1 79L       0.112500
     83 H42          0.1160    -3.4660     2.5720 ha         1 79L       0.114500
     84 H43         -1.6650    -2.9050     0.9530 ha         1 79L       0.126000
     85 H44         -1.0540    -1.9800    -1.2700 ha         1 79L       0.114500
     86 H45          1.3090    -1.6160    -1.8440 ha         1 79L       0.112500
@<TRIPOS>BOND
     1     1     2 2   
     2     1     3 1   
     3     1    10 1   
     4     3     4 1   
     5     3    43 1   
     6     3    44 1   
     7     4     6 1   
     8     4     7 1   
     9     5     8 1   
    10     5     9 1   
    11     6     8 1   
    12     6    45 1   
    13     6    46 1   
    14     7     9 1   
    15     7    47 1   
    16     7    48 1   
    17     8    49 1   
    18     8    50 1   
    19     9    51 1   
    20     9    52 1   
    21    10    11 1   
    22    10    53 1   
    23    11    12 1   
    24    11    14 1   
    25    11    54 1   
    26    12    13 2   
    27    12    15 1   
    28    14    55 1   
    29    14    56 1   
    30    14    57 1   
    31    15    16 1   
    32    15    58 1   
    33    16    17 1   
    34    16    26 1   
    35    16    59 1   
    36    17    18 1   
    37    17    60 1   
    38    17    61 1   
    39    18    19 ar  
    40    18    25 ar  
    41    19    20 ar  
    42    19    62 1   
    43    20    21 ar  
    44    20    63 1   
    45    21    22 1   
    46    21    24 ar  
    47    22    23 1   
    48    23    64 1   
    49    23    65 1   
    50    23    66 1   
    51    24    25 ar  
    52    24    67 1   
    53    25    68 1   
    54    26    27 2   
    55    26    28 1   
    56    28    29 1   
    57    28    69 1   
    58    29    30 1   
    59    29    36 1   
    60    29    70 1   
    61    30    31 1   
    62    30    32 1   
    63    30    71 1   
    64    31    72 1   
    65    32    33 1   
    66    32    34 1   
    67    32    73 1   
    68    33    74 1   
    69    33    75 1   
    70    33    76 1   
    71    34    35 1   
    72    34    77 1   
    73    34    78 1   
    74    35    79 1   
    75    36    37 1   
    76    36    80 1   
    77    36    81 1   
    78    37    38 ar  
    79    37    42 ar  
    80    38    39 ar  
    81    38    82 1   
    82    39    40 ar  
    83    39    83 1   
    84    40    41 ar  
    85    40    84 1   
    86    41    42 ar  
    87    41    85 1   
    88    42    86 1   
@<TRIPOS>SUBSTRUCTURE
     1 79L         1 TEMP              0 ****  ****    0 ROOT
