@<TRIPOS>MOLECULE
79L
   86    88     1     0     0
SMALL
No Charge or Current Charge


@<TRIPOS>ATOM
      1 C29         -4.6410    -0.9380     0.8820 c          1 79L       0.598100
      2 O37         -4.7280    -1.4300     2.0010 o          1 79L      -0.587100
      3 C30         -5.6400    -1.2580    -0.2680 c3         1 79L       0.088800
      4 N31         -5.3140    -2.4110    -1.1700 n3         1 79L      -0.693600
      5 O34         -4.8120    -3.7290    -3.7110 os         1 79L      -0.451000
      6 C36         -6.4190    -2.7290    -2.1270 c6         1 79L       0.125300
      7 C32         -4.0120    -2.2640    -1.8950 c6         1 79L       0.125300
      8 C35         -6.0680    -3.9520    -3.0260 c6         1 79L       0.153600
      9 C33         -3.7120    -3.4970    -2.7990 c6         1 79L       0.153600
     10 N28         -3.6300    -0.0590     0.5490 ns         1 79L      -0.507900
     11 C27         -2.5320     0.3600     1.4460 c3         1 79L       0.037700
     12 C26         -1.3050     0.8240     0.6110 c          1 79L       0.601100
     13 O39         -1.3670     1.0540    -0.5910 o          1 79L      -0.615100
     14 C38         -3.0110     1.4650     2.4150 c3         1 79L      -0.108100
     15 N25         -0.1270     0.9340     1.3200 ns         1 79L      -0.487900
     16 C24          1.1700     1.3610     0.7480 c3         1 79L       0.031700
     17 C40          1.4730     2.8380     1.1020 c3         1 79L      -0.032100
     18 C41          0.3340     3.7840     0.7320 ca         1 79L      -0.122300
     19 C48          0.1570     4.1920    -0.6030 ca         1 79L      -0.064500
     20 C47         -0.9070     5.0420    -0.9470 ca         1 79L      -0.169000
     21 C44         -1.8060     5.4910     0.0340 ca         1 79L       0.144100
     22 O45         -2.8350     6.3200    -0.3640 os         1 79L      -0.340100
     23 C46         -3.8150     6.8250     0.5610 c3         1 79L       0.147900
     24 C43         -1.6300     5.0850     1.3750 ca         1 79L      -0.169000
     25 C42         -0.5640     4.2370     1.7190 ca         1 79L      -0.064500
     26 C23          2.2940     0.4180     1.2450 c          1 79L       0.588100
     27 O49          2.2700    -0.1240     2.3430 o          1 79L      -0.590100
     28 N22          3.3180     0.2050     0.3400 ns         1 79L      -0.501900
     29 C8           4.2720    -0.9190     0.4250 c3         1 79L       0.068700
     30 C9           5.7280    -0.4440     0.1130 c3         1 79L       0.170300
     31 O21          6.0320     0.6880     0.9390 oh         1 79L      -0.651000
     32 C10          6.8440    -1.5270     0.2630 c3         1 79L      -0.052700
     33 C11          6.9200    -2.1460     1.6880 c3         1 79L      -0.083100
     34 C12          8.2180    -0.9680    -0.1980 c3         1 79L       0.166600
     35 O13          9.1760    -2.0270    -0.3430 oh         1 79L      -0.666000
     36 C7           3.7820    -2.0870    -0.4770 c3         1 79L      -0.048100
     37 C6           2.3000    -2.4080    -0.2840 ca         1 79L      -0.090300
     38 C5           1.8740    -3.1380     0.8420 ca         1 79L      -0.101500
     39 C4           0.5070    -3.3910     1.0480 ca         1 79L      -0.111000
     40 C3          -0.4440    -2.9170     0.1300 ca         1 79L      -0.117000
     41 C2          -0.0250    -2.1920    -0.9990 ca         1 79L      -0.111000
     42 C1           1.3420    -1.9400    -1.2060 ca         1 79L      -0.101500
     43 H1          -6.6100    -1.4360     0.2140 h1         1 79L       0.048700
     44 H2          -5.7530    -0.3420    -0.8640 h1         1 79L       0.048700
     45 H4          -7.3470    -2.9490    -1.5790 h1         1 79L       0.041700
     46 H5          -6.6230    -1.8640    -2.7740 h1         1 79L       0.041700
     47 H6          -4.0230    -1.3610    -2.5230 h1         1 79L       0.041700
     48 H7          -3.1840    -2.1520    -1.1810 h1         1 79L       0.041700
     49 H8          -6.8620    -4.1090    -3.7700 h1         1 79L       0.053950
     50 H9          -5.9910    -4.8600    -2.4110 h1         1 79L       0.053950
     51 H10         -3.5610    -4.3900    -2.1770 h1         1 79L       0.053950
     52 H11         -2.7940    -3.3230    -3.3770 h1         1 79L       0.053950
     53 H12         -3.6170     0.2820    -0.4060 hn         1 79L       0.336500
     54 H13         -2.2070    -0.5110     2.0320 h1         1 79L       0.085700
     55 H14         -3.3220     2.3580     1.8590 hc         1 79L       0.050033
     56 H15         -3.8620     1.1170     3.0120 hc         1 79L       0.050033
     57 H16         -2.2100     1.7540     3.1060 hc         1 79L       0.050033
     58 H17         -0.1550     0.6800     2.3010 hn         1 79L       0.332500
     59 H18          1.1240     1.2630    -0.3450 h1         1 79L       0.086700
     60 H19          1.6850     2.9090     2.1760 hc         1 79L       0.063200
     61 H20          2.3950     3.1460     0.5930 hc         1 79L       0.063200
     62 H21          0.8400     3.8450    -1.3760 ha         1 79L       0.109500
     63 H22         -1.0400     5.3520    -1.9800 ha         1 79L       0.123000
     64 H23         -4.5410     7.4590     0.0370 h1         1 79L       0.040700
     65 H24         -4.3630     6.0020     1.0360 h1         1 79L       0.040700
     66 H25         -3.3370     7.4300     1.3420 h1         1 79L       0.040700
     67 H26         -2.3070     5.4130     2.1580 ha         1 79L       0.123000
     68 H27         -0.4410     3.9240     2.7530 ha         1 79L       0.109500
     69 H28          3.2430     0.6930    -0.5450 hn         1 79L       0.311500
     70 H29          4.2630    -1.2870     1.4590 h1         1 79L       0.100700
     71 H30          5.7330    -0.1190    -0.9370 h1         1 79L       0.020700
     72 H31          5.1840     1.1670     1.0630 ho         1 79L       0.447000
     73 H32          6.6000    -2.3400    -0.4300 hc         1 79L       0.059700
     74 H33          7.1380    -1.3780     2.4400 hc         1 79L       0.042033
     75 H34          5.9790    -2.6370     1.9590 hc         1 79L       0.042033
     76 H35          7.7070    -2.9060     1.7430 hc         1 79L       0.042033
     77 H36          8.0890    -0.4540    -1.1610 h1         1 79L       0.025200
     78 H37          8.5760    -0.2270     0.5290 h1         1 79L       0.025200
     79 H38         10.0210    -1.6110    -0.6250 ho         1 79L       0.444000
     80 H39          3.9750    -1.8320    -1.5260 hc         1 79L       0.056700
     81 H40          4.3760    -2.9840    -0.2670 hc         1 79L       0.056700
     82 H41          2.6020    -3.4970     1.5660 ha         1 79L       0.112500
     83 H42          0.1850    -3.9510     1.9240 ha         1 79L       0.114500
     84 H43         -1.5020    -3.1110     0.2930 ha         1 79L       0.126000
     85 H44         -0.7580    -1.8190    -1.7110 ha         1 79L       0.114500
     86 H45          1.6540    -1.3670    -2.0770 ha         1 79L       0.112500
@<TRIPOS>BOND
     1     1     2 2   
     2     1     3 1   
     3     1    10 1   
     4     3     4 1   
     5     3    43 1   
     6     3    44 1   
     7     4     6 1   
     8     4     7 1   
     9     5     8 1   
    10     5     9 1   
    11     6     8 1   
    12     6    45 1   
    13     6    46 1   
    14     7     9 1   
    15     7    47 1   
    16     7    48 1   
    17     8    49 1   
    18     8    50 1   
    19     9    51 1   
    20     9    52 1   
    21    10    11 1   
    22    10    53 1   
    23    11    12 1   
    24    11    14 1   
    25    11    54 1   
    26    12    13 2   
    27    12    15 1   
    28    14    55 1   
    29    14    56 1   
    30    14    57 1   
    31    15    16 1   
    32    15    58 1   
    33    16    17 1   
    34    16    26 1   
    35    16    59 1   
    36    17    18 1   
    37    17    60 1   
    38    17    61 1   
    39    18    19 ar  
    40    18    25 ar  
    41    19    20 ar  
    42    19    62 1   
    43    20    21 ar  
    44    20    63 1   
    45    21    22 1   
    46    21    24 ar  
    47    22    23 1   
    48    23    64 1   
    49    23    65 1   
    50    23    66 1   
    51    24    25 ar  
    52    24    67 1   
    53    25    68 1   
    54    26    27 2   
    55    26    28 1   
    56    28    29 1   
    57    28    69 1   
    58    29    30 1   
    59    29    36 1   
    60    29    70 1   
    61    30    31 1   
    62    30    32 1   
    63    30    71 1   
    64    31    72 1   
    65    32    33 1   
    66    32    34 1   
    67    32    73 1   
    68    33    74 1   
    69    33    75 1   
    70    33    76 1   
    71    34    35 1   
    72    34    77 1   
    73    34    78 1   
    74    35    79 1   
    75    36    37 1   
    76    36    80 1   
    77    36    81 1   
    78    37    38 ar  
    79    37    42 ar  
    80    38    39 ar  
    81    38    82 1   
    82    39    40 ar  
    83    39    83 1   
    84    40    41 ar  
    85    40    84 1   
    86    41    42 ar  
    87    41    85 1   
    88    42    86 1   
@<TRIPOS>SUBSTRUCTURE
     1 79L         1 TEMP              0 ****  ****    0 ROOT
