@<TRIPOS>MOLECULE
79M
   59    58     1     0     0
SMALL
bcc


@<TRIPOS>ATOM
      1 C19         11.8550    -2.8030    -0.1270 c3         1 79M      -0.088100
      2 C8           3.3260     2.6410     0.1650 c2         1 79M      -0.164200
      3 C7           2.1550     2.8770    -0.4240 c2         1 79M      -0.168200
      4 C15         10.3750    -2.8040     0.2300 c3         1 79M      -0.074400
      5 C9           3.9440     1.3170     0.4950 c3         1 79M      -0.042200
      6 C6           1.1260     1.8810    -0.8610 c3         1 79M      -0.042200
      7 C21         -7.2690    -0.0740     0.4730 c3         1 79M       0.104400
      8 C14          9.6870    -1.4830    -0.0920 c3         1 79M      -0.075400
      9 C10          5.3880     1.2240     0.0040 c3         1 79M      -0.073400
     10 C5          -0.2080     2.1060    -0.1490 c3         1 79M      -0.073400
     11 C13          8.2070    -1.4670     0.2710 c3         1 79M      -0.074400
     12 C11          6.0570    -0.1010     0.3470 c3         1 79M      -0.074400
     13 C4          -1.2880     1.1170    -0.5660 c3         1 79M      -0.076400
     14 C12          7.5270    -0.1430    -0.0520 c3         1 79M      -0.074400
     15 C3          -2.6290     1.4150     0.0930 c3         1 79M      -0.068400
     16 C2          -3.6890     0.3860    -0.2650 c3         1 79M      -0.137400
     17 C24         -9.4760    -1.1880     0.6200 c3         1 79M       0.105400
     18 C22         -8.0660    -1.3000     0.0620 c3         1 79M       0.141100
     19 O19         -5.3190     1.6770     0.9550 o          1 79M      -0.540000
     20 C1          -5.0450     0.6970     0.3100 c          1 79M       0.641100
     21 O20         -5.9300    -0.2490     0.0130 os         1 79M      -0.411900
     22 O23         -8.0490    -1.5040    -1.3300 oh         1 79M      -0.563800
     23 O25        -10.1710    -2.3770     0.3360 oh         1 79M      -0.579800
     24 H21C        -3.7950     0.2990    -1.3520 hc         1 79M       0.073200
     25 H22C        -3.3890    -0.6100     0.0760 hc         1 79M       0.073200
     26 H31C        -2.5010     1.4470     1.1780 hc         1 79M       0.054200
     27 H32C        -2.9630     2.4110    -0.2080 hc         1 79M       0.054200
     28 H41C        -1.4050     1.1380    -1.6550 hc         1 79M       0.038700
     29 H42C        -0.9670     0.1010    -0.3140 hc         1 79M       0.038700
     30 H51C        -0.0550     2.0430     0.9330 hc         1 79M       0.042200
     31 H52C        -0.5540     3.1270    -0.3490 hc         1 79M       0.042200
     32 H61C         0.9650     1.9780    -1.9410 hc         1 79M       0.044200
     33 H62C         1.4670     0.8580    -0.6880 hc         1 79M       0.044200
     34 H7           1.8810     3.9170    -0.5900 ha         1 79M       0.115000
     35 H8           3.9280     3.5050     0.4400 ha         1 79M       0.115000
     36 H91          3.9370     1.1790     1.5830 hc         1 79M       0.044700
     37 H92          3.3600     0.4930     0.0810 hc         1 79M       0.044700
     38 H101         5.4170     1.3780    -1.0790 hc         1 79M       0.039700
     39 H102         5.9660     2.0450     0.4420 hc         1 79M       0.039700
     40 H111         5.9700    -0.2840     1.4240 hc         1 79M       0.037200
     41 H112         5.5210    -0.9200    -0.1440 hc         1 79M       0.037200
     42 H121         8.0590     0.6700     0.4560 hc         1 79M       0.037200
     43 H122         7.6190     0.0610    -1.1250 hc         1 79M       0.037200
     44 H131         7.6940    -2.2790    -0.2560 hc         1 79M       0.036700
     45 H132         8.0950    -1.6830     1.3390 hc         1 79M       0.036700
     46 H141        10.1970    -0.6710     0.4370 hc         1 79M       0.036700
     47 H142         9.8010    -1.2660    -1.1600 hc         1 79M       0.036700
     48 H151         9.8700    -3.6150    -0.3030 hc         1 79M       0.036700
     49 H152        10.2560    -3.0230     1.2960 hc         1 79M       0.036700
     50 H191        12.0040    -2.6150    -1.1920 hc         1 79M       0.031367
     51 H192        12.3910    -2.0250     0.4200 hc         1 79M       0.031367
     52 H193        12.3260    -3.7580     0.1090 hc         1 79M       0.031367
     53 H211        -7.6990     0.8330     0.0360 h1         1 79M       0.050700
     54 H212        -7.2870     0.0380     1.5600 h1         1 79M       0.050700
     55 H22         -7.5920    -2.1850     0.4990 h1         1 79M       0.097700
     56 H23         -8.4950    -0.7640    -1.7570 ho         1 79M       0.397000
     57 H241        -9.4140    -1.0000     1.7000 h1         1 79M       0.021200
     58 H242        -9.9720    -0.3120     0.1770 h1         1 79M       0.021200
     59 H25        -11.0550    -2.3000     0.7060 ho         1 79M       0.406000
@<TRIPOS>BOND
     1     1     4 1   
     2     1    50 1   
     3     1    51 1   
     4     1    52 1   
     5     2     3 2   
     6     2     5 1   
     7     2    35 1   
     8     3     6 1   
     9     3    34 1   
    10     4     8 1   
    11     4    48 1   
    12     4    49 1   
    13     5     9 1   
    14     5    36 1   
    15     5    37 1   
    16     6    10 1   
    17     6    32 1   
    18     6    33 1   
    19     7    18 1   
    20     7    21 1   
    21     7    53 1   
    22     7    54 1   
    23     8    11 1   
    24     8    46 1   
    25     8    47 1   
    26     9    12 1   
    27     9    38 1   
    28     9    39 1   
    29    10    13 1   
    30    10    30 1   
    31    10    31 1   
    32    11    14 1   
    33    11    44 1   
    34    11    45 1   
    35    12    14 1   
    36    12    40 1   
    37    12    41 1   
    38    13    15 1   
    39    13    28 1   
    40    13    29 1   
    41    14    42 1   
    42    14    43 1   
    43    15    16 1   
    44    15    26 1   
    45    15    27 1   
    46    16    20 1   
    47    16    24 1   
    48    16    25 1   
    49    17    18 1   
    50    17    23 1   
    51    17    57 1   
    52    17    58 1   
    53    18    22 1   
    54    18    55 1   
    55    19    20 2   
    56    20    21 1   
    57    22    56 1   
    58    23    59 1   
@<TRIPOS>SUBSTRUCTURE
     1 79M         1 TEMP              0 ****  ****    0 ROOT
