@<TRIPOS>MOLECULE
79M
   59    58     1     0     0
SMALL
No Charge or Current Charge


@<TRIPOS>ATOM
      1 C19         10.8540    -3.1450     0.0650 c3         1 79M      -0.088100
      2 C8           2.9550     3.4070    -0.1350 c2         1 79M      -0.214200
      3 C7           1.9090     3.2630    -0.9680 c2         1 79M      -0.218200
      4 C15          9.5960    -2.6270     0.7890 c3         1 79M      -0.074400
      5 C9           3.6510     2.3090     0.6480 c3         1 79M      -0.042200
      6 C6           1.2150     1.9670    -1.3410 c3         1 79M      -0.042200
      7 C21         -6.3710    -1.0190     0.6290 c3         1 79M       0.127600
      8 C14          8.8760    -1.4990     0.0180 c3         1 79M      -0.075400
      9 C10          4.9120     1.7920    -0.0730 c3         1 79M      -0.073400
     10 C5          -0.0450     1.7160    -0.4870 c3         1 79M      -0.073400
     11 C13          7.6150    -0.9810     0.7440 c3         1 79M      -0.074400
     12 C11          5.6330     0.6650     0.6990 c3         1 79M      -0.074400
     13 C4          -0.7640     0.3950    -0.8400 c3         1 79M      -0.076400
     14 C12          6.8940     0.1470    -0.0270 c3         1 79M      -0.074400
     15 C3          -2.0230     0.1450     0.0180 c3         1 79M      -0.068400
     16 C2          -2.7430    -1.1780    -0.3340 c3         1 79M      -0.137400
     17 C24         -8.9010    -0.6320     0.3800 c3         1 79M       0.128600
     18 C22         -7.4980    -0.4060    -0.2430 c3         1 79M       0.164300
     19 O19         -3.9610    -1.8790     1.6510 o          1 79M      -0.491000
     20 C1          -3.9870    -1.3830     0.5320 c          1 79M       0.592100
     21 O20         -5.1190    -0.9130    -0.0810 os         1 79M      -0.435100
     22 O23         -7.2970     1.0110    -0.4150 oh         1 79M      -0.626000
     23 O25         -9.9100     0.0030    -0.4240 oh         1 79M      -0.642000
     24 H21C        -3.0450    -1.1200    -1.3870 hc         1 79M       0.073200
     25 H22C        -2.0530    -2.0150    -0.1760 hc         1 79M       0.073200
     26 H31C        -1.7400     0.1300     1.0790 hc         1 79M       0.054200
     27 H32C        -2.7220     0.9810    -0.1130 hc         1 79M       0.054200
     28 H41C        -1.0470     0.4120    -1.9000 hc         1 79M       0.038700
     29 H42C        -0.0660    -0.4410    -0.7080 hc         1 79M       0.038700
     30 H51C         0.2400     1.7000     0.5730 hc         1 79M       0.042200
     31 H52C        -0.7400     2.5540    -0.6190 hc         1 79M       0.042200
     32 H61C         0.9360     1.9900    -2.4020 hc         1 79M       0.044200
     33 H62C         1.8980     1.1160    -1.2290 hc         1 79M       0.044200
     34 H7           1.4920     4.1420    -1.4640 ha         1 79M       0.165000
     35 H8           3.3700     4.4020     0.0410 ha         1 79M       0.165000
     36 H91          3.9280     2.6840     1.6410 hc         1 79M       0.044700
     37 H92          2.9700     1.4680     0.8250 hc         1 79M       0.044700
     38 H101         4.6290     1.4240    -1.0670 hc         1 79M       0.039700
     39 H102         5.6060     2.6280    -0.2260 hc         1 79M       0.039700
     40 H111         5.9160     1.0330     1.6930 hc         1 79M       0.037200
     41 H112         4.9370    -0.1690     0.8520 hc         1 79M       0.037200
     42 H121         7.5900     0.9810    -0.1800 hc         1 79M       0.037200
     43 H122         6.6120    -0.2210    -1.0220 hc         1 79M       0.037200
     44 H131         6.9180    -1.8150     0.8970 hc         1 79M       0.036700
     45 H132         7.8980    -0.6130     1.7390 hc         1 79M       0.036700
     46 H141         9.5720    -0.6650    -0.1350 hc         1 79M       0.036700
     47 H142         8.5930    -1.8670    -0.9770 hc         1 79M       0.036700
     48 H151         8.9040    -3.4640     0.9420 hc         1 79M       0.036700
     49 H152         9.8820    -2.2620     1.7830 hc         1 79M       0.036700
     50 H191        10.5960    -3.5490    -0.9210 hc         1 79M       0.031367
     51 H192        11.5830    -2.3370    -0.0720 hc         1 79M       0.031367
     52 H193        11.3300    -3.9410     0.6480 hc         1 79M       0.031367
     53 H211        -6.3230    -0.4890     1.5890 h1         1 79M       0.050700
     54 H212        -6.6060    -2.0720     0.8320 h1         1 79M       0.050700
     55 H22         -7.4830    -0.9140    -1.2170 h1         1 79M       0.097700
     56 H23         -8.1820     1.3590    -0.6650 ho         1 79M       0.436000
     57 H241        -9.0930    -1.7110     0.4470 h1         1 79M       0.021200
     58 H242        -8.9170    -0.2260     1.4010 h1         1 79M       0.021200
     59 H25        -10.7810    -0.2100    -0.0190 ho         1 79M       0.445000
@<TRIPOS>BOND
     1     1     4 1   
     2     1    50 1   
     3     1    51 1   
     4     1    52 1   
     5     2     3 2   
     6     2     5 1   
     7     2    35 1   
     8     3     6 1   
     9     3    34 1   
    10     4     8 1   
    11     4    48 1   
    12     4    49 1   
    13     5     9 1   
    14     5    36 1   
    15     5    37 1   
    16     6    10 1   
    17     6    32 1   
    18     6    33 1   
    19     7    18 1   
    20     7    21 1   
    21     7    53 1   
    22     7    54 1   
    23     8    11 1   
    24     8    46 1   
    25     8    47 1   
    26     9    12 1   
    27     9    38 1   
    28     9    39 1   
    29    10    13 1   
    30    10    30 1   
    31    10    31 1   
    32    11    14 1   
    33    11    44 1   
    34    11    45 1   
    35    12    14 1   
    36    12    40 1   
    37    12    41 1   
    38    13    15 1   
    39    13    28 1   
    40    13    29 1   
    41    14    42 1   
    42    14    43 1   
    43    15    16 1   
    44    15    26 1   
    45    15    27 1   
    46    16    20 1   
    47    16    24 1   
    48    16    25 1   
    49    17    18 1   
    50    17    23 1   
    51    17    57 1   
    52    17    58 1   
    53    18    22 1   
    54    18    55 1   
    55    19    20 2   
    56    20    21 1   
    57    22    56 1   
    58    23    59 1   
@<TRIPOS>SUBSTRUCTURE
     1 79M         1 TEMP              0 ****  ****    0 ROOT
