@<TRIPOS>MOLECULE
79N
   59    58     1     0     0
SMALL
abcg2


@<TRIPOS>ATOM
      1 C           11.8010    -2.8410    -0.0880 c3         1 79N      -0.088100
      2 O           -5.2780     1.5870     1.0710 o          1 79N      -0.490000
      3 C1          10.3180    -2.8280     0.2590 c3         1 79N      -0.075400
      4 O1          -5.9350    -0.1680    -0.1390 os         1 79N      -0.436100
      5 C2           9.6410    -1.5060    -0.0820 c3         1 79N      -0.075400
      6 O2          -7.5480    -2.4610     0.1550 oh         1 79N      -0.626000
      7 C3           8.1580    -1.4780     0.2670 c3         1 79N      -0.074400
      8 C4           7.4890    -0.1510    -0.0670 c3         1 79N      -0.074400
      9 C5           6.0170    -0.1000     0.3200 c3         1 79N      -0.074400
     10 C6           5.3620     1.2360    -0.0100 c3         1 79N      -0.073400
     11 C7           3.9120     1.3290     0.4650 c3         1 79N      -0.043200
     12 C8           3.3170     2.6750     0.1870 c2         1 79N      -0.213200
     13 C9           2.1570     2.9560    -0.4050 c2         1 79N      -0.218200
     14 C10          1.1190     1.9990    -0.9010 c3         1 79N      -0.042200
     15 C11         -0.2010     2.1640    -0.1450 c3         1 79N      -0.073400
     16 C12         -1.2990     1.2340    -0.6450 c3         1 79N      -0.076400
     17 C13         -2.6190     1.4520     0.0840 c3         1 79N      -0.068400
     18 C14         -3.7000     0.4930    -0.3890 c3         1 79N      -0.137400
     19 C15         -5.0330     0.7180     0.2730 c          1 79N       0.592100
     20 C16         -7.2590    -0.0620     0.3840 c3         1 79N       0.128600
     21 C17         -8.0750    -1.2050    -0.1960 c3         1 79N       0.164300
     22 C18         -9.5300    -1.0430     0.2180 c3         1 79N       0.128600
     23 H           12.3380    -2.0600     0.4550 hc         1 79N       0.031367
     24 HA          12.2640    -3.7960     0.1630 hc         1 79N       0.031367
     25 HB          11.9580    -2.6660    -1.1530 hc         1 79N       0.031367
     26 H1           9.8110    -3.6410    -0.2690 hc         1 79N       0.036700
     27 H1A         10.1900    -3.0350     1.3260 hc         1 79N       0.036700
     28 H2          10.1510    -0.6920     0.4460 hc         1 79N       0.037200
     29 H2A          9.7680    -1.2980    -1.1500 hc         1 79N       0.037200
     30 H3           7.6450    -2.2890    -0.2620 hc         1 79N       0.036700
     31 H3A          8.0340    -1.6880     1.3350 hc         1 79N       0.036700
     32 HO3        -11.2030    -1.9490    -0.1220 ho         1 79N       0.444000
     33 H4           8.0220     0.6600     0.4420 hc         1 79N       0.037200
     34 H4A          7.5920     0.0490    -1.1400 hc         1 79N       0.037200
     35 H5           5.4770    -0.9080    -0.1850 hc         1 79N       0.037200
     36 H5A          5.9190    -0.2950     1.3940 hc         1 79N       0.037200
     37 H6           5.9390     2.0450     0.4510 hc         1 79N       0.039700
     38 H6A          5.4040     1.4090    -1.0900 hc         1 79N       0.039700
     39 H7           3.3220     0.5310     0.0090 hc         1 79N       0.044700
     40 H7A          3.8900     1.1450     1.5460 hc         1 79N       0.044700
     41 H8           3.9250     3.5160     0.5110 ha         1 79N       0.165000
     42 H9           1.8990     4.0060    -0.5220 ha         1 79N       0.165000
     43 H10          0.9370     2.1840    -1.9650 hc         1 79N       0.044200
     44 H10A         1.4590     0.9640    -0.8200 hc         1 79N       0.044200
     45 H11         -0.0290     1.9840     0.9210 hc         1 79N       0.042200
     46 H11A        -0.5380     3.2030    -0.2300 hc         1 79N       0.042200
     47 H12         -1.4460     1.3870    -1.7200 hc         1 79N       0.038200
     48 H12A        -0.9770     0.1940    -0.5240 hc         1 79N       0.038200
     49 H13         -2.4650     1.3300     1.1590 hc         1 79N       0.054200
     50 H13A        -2.9480     2.4830    -0.0680 hc         1 79N       0.054200
     51 H14         -3.8430     0.5790    -1.4710 hc         1 79N       0.073700
     52 H14A        -3.3990    -0.5440    -0.2150 hc         1 79N       0.073700
     53 H16         -7.2430    -0.1180     1.4770 h1         1 79N       0.050700
     54 H16A        -7.6970     0.8990     0.1030 h1         1 79N       0.050700
     55 H17         -8.0200    -1.1520    -1.2880 h1         1 79N       0.097700
     56 H18         -9.8730    -0.0460    -0.0860 h1         1 79N       0.021200
     57 H18A        -9.6010    -1.0820     1.3150 h1         1 79N       0.021200
     58 HO2         -7.6310    -2.5770     1.1080 ho         1 79N       0.436000
     59 O3         -10.2870    -2.0610    -0.3890 oh         1 79N      -0.642000
@<TRIPOS>BOND
     1     1     3 1   
     2     1    23 1   
     3     1    24 1   
     4     1    25 1   
     5     2    19 2   
     6     3     5 1   
     7     3    26 1   
     8     3    27 1   
     9     4    19 1   
    10     4    20 1   
    11     5     7 1   
    12     5    28 1   
    13     5    29 1   
    14     6    21 1   
    15     6    58 1   
    16     7     8 1   
    17     7    30 1   
    18     7    31 1   
    19     8     9 1   
    20     8    33 1   
    21     8    34 1   
    22     9    10 1   
    23     9    35 1   
    24     9    36 1   
    25    10    11 1   
    26    10    37 1   
    27    10    38 1   
    28    11    12 1   
    29    11    39 1   
    30    11    40 1   
    31    12    13 2   
    32    12    41 1   
    33    13    14 1   
    34    13    42 1   
    35    14    15 1   
    36    14    43 1   
    37    14    44 1   
    38    15    16 1   
    39    15    45 1   
    40    15    46 1   
    41    16    17 1   
    42    16    47 1   
    43    16    48 1   
    44    17    18 1   
    45    17    49 1   
    46    17    50 1   
    47    18    19 1   
    48    18    51 1   
    49    18    52 1   
    50    20    21 1   
    51    20    53 1   
    52    20    54 1   
    53    21    22 1   
    54    21    55 1   
    55    22    56 1   
    56    22    57 1   
    57    22    59 1   
    58    32    59 1   
@<TRIPOS>SUBSTRUCTURE
     1 79N         1 TEMP              0 ****  ****    0 ROOT
