@<TRIPOS>MOLECULE
79N
   59    58     1     0     0
SMALL
No Charge or Current Charge


@<TRIPOS>ATOM
      1 C           10.8450    -3.1200     0.0620 c3         1 79N      -0.088100
      2 O           -3.9720    -1.8570     1.6060 o          1 79N      -0.490000
      3 C1           9.5850    -2.6070     0.7860 c3         1 79N      -0.075400
      4 O1          -5.1210    -0.8650    -0.1170 os         1 79N      -0.436100
      5 C2           8.8680    -1.4730     0.0230 c3         1 79N      -0.075400
      6 O2          -7.6850    -1.1770    -1.4900 oh         1 79N      -0.626000
      7 C3           7.6050    -0.9590     0.7490 c3         1 79N      -0.074400
      8 C4           6.8880     0.1760    -0.0150 c3         1 79N      -0.074400
      9 C5           5.6260     0.6890     0.7110 c3         1 79N      -0.074400
     10 C6           4.9080     1.8230    -0.0530 c3         1 79N      -0.073400
     11 C7           3.6440     2.3350     0.6680 c3         1 79N      -0.043200
     12 C8           2.9520     3.4400    -0.1080 c2         1 79N      -0.213200
     13 C9           1.9090     3.3050    -0.9460 c2         1 79N      -0.218200
     14 C10          1.2160     2.0120    -1.3330 c3         1 79N      -0.042200
     15 C11         -0.0470     1.7540    -0.4860 c3         1 79N      -0.073400
     16 C12         -0.7650     0.4370    -0.8540 c3         1 79N      -0.076400
     17 C13         -2.0280     0.1800    -0.0020 c3         1 79N      -0.068400
     18 C14         -2.7460    -1.1400    -0.3690 c3         1 79N      -0.137400
     19 C15         -3.9940    -1.3520     0.4910 c          1 79N       0.592100
     20 C16         -6.3760    -0.9780     0.5870 c3         1 79N       0.128600
     21 C17         -7.5060    -0.3870    -0.2980 c3         1 79N       0.164300
     22 C18         -8.8590    -0.3190     0.4580 c3         1 79N       0.128600
     23 H           11.5750    -2.3120    -0.0660 hc         1 79N       0.031367
     24 HA          11.3180    -3.9230     0.6400 hc         1 79N       0.031367
     25 HB          10.5890    -3.5160    -0.9280 hc         1 79N       0.031367
     26 H1           8.8910    -3.4450     0.9300 hc         1 79N       0.036700
     27 H1A          9.8680    -2.2520     1.7850 hc         1 79N       0.036700
     28 H2           9.5660    -0.6380    -0.1210 hc         1 79N       0.037200
     29 H2A          8.5880    -1.8320    -0.9760 hc         1 79N       0.037200
     30 H3           6.9080    -1.7940     0.8920 hc         1 79N       0.036700
     31 H3A          7.8850    -0.6000     1.7470 hc         1 79N       0.036700
     32 HO3        -10.7120     0.2480     0.1220 ho         1 79N       0.444000
     33 H4           7.5860     1.0110    -0.1580 hc         1 79N       0.037200
     34 H4A          6.6090    -0.1830    -1.0130 hc         1 79N       0.037200
     35 H5           4.9280    -0.1460     0.8540 hc         1 79N       0.037200
     36 H5A          5.9050     1.0480     1.7100 hc         1 79N       0.037200
     37 H6           5.6030     2.6600    -0.1970 hc         1 79N       0.039700
     38 H6A          4.6280     1.4640    -1.0520 hc         1 79N       0.039700
     39 H7           2.9620     1.4930     0.8350 hc         1 79N       0.044700
     40 H7A          3.9190     2.7010     1.6650 hc         1 79N       0.044700
     41 H8           3.3680     4.4330     0.0780 ha         1 79N       0.165000
     42 H9           1.4950     4.1890    -1.4360 ha         1 79N       0.165000
     43 H10          0.9410     2.0450    -2.3950 hc         1 79N       0.044200
     44 H10A         1.8980     1.1600    -1.2260 hc         1 79N       0.044200
     45 H11          0.2340     1.7280     0.5740 hc         1 79N       0.042200
     46 H11A        -0.7410     2.5940    -0.6130 hc         1 79N       0.042200
     47 H12         -1.0450     0.4640    -1.9140 hc         1 79N       0.038200
     48 H12A        -0.0680    -0.4010    -0.7260 hc         1 79N       0.038200
     49 H13         -1.7480     0.1550     1.0590 hc         1 79N       0.054200
     50 H13A        -2.7260     1.0180    -0.1280 hc         1 79N       0.054200
     51 H14         -3.0450    -1.0730    -1.4220 hc         1 79N       0.073700
     52 H14A        -2.0580    -1.9790    -0.2150 hc         1 79N       0.073700
     53 H16         -6.6040    -2.0270     0.8170 h1         1 79N       0.050700
     54 H16A        -6.3340    -0.4230     1.5340 h1         1 79N       0.050700
     55 H17         -7.2210     0.6410    -0.5620 h1         1 79N       0.097700
     56 H18         -8.7500     0.3420     1.3280 h1         1 79N       0.021200
     57 H18A        -9.1210    -1.3190     0.8280 h1         1 79N       0.021200
     58 HO2         -8.5930    -0.9550    -1.8000 ho         1 79N       0.436000
     59 O3          -9.8900     0.1760    -0.4140 oh         1 79N      -0.642000
@<TRIPOS>BOND
     1     1     3 1   
     2     1    23 1   
     3     1    24 1   
     4     1    25 1   
     5     2    19 2   
     6     3     5 1   
     7     3    26 1   
     8     3    27 1   
     9     4    19 1   
    10     4    20 1   
    11     5     7 1   
    12     5    28 1   
    13     5    29 1   
    14     6    21 1   
    15     6    58 1   
    16     7     8 1   
    17     7    30 1   
    18     7    31 1   
    19     8     9 1   
    20     8    33 1   
    21     8    34 1   
    22     9    10 1   
    23     9    35 1   
    24     9    36 1   
    25    10    11 1   
    26    10    37 1   
    27    10    38 1   
    28    11    12 1   
    29    11    39 1   
    30    11    40 1   
    31    12    13 2   
    32    12    41 1   
    33    13    14 1   
    34    13    42 1   
    35    14    15 1   
    36    14    43 1   
    37    14    44 1   
    38    15    16 1   
    39    15    45 1   
    40    15    46 1   
    41    16    17 1   
    42    16    47 1   
    43    16    48 1   
    44    17    18 1   
    45    17    49 1   
    46    17    50 1   
    47    18    19 1   
    48    18    51 1   
    49    18    52 1   
    50    20    21 1   
    51    20    53 1   
    52    20    54 1   
    53    21    22 1   
    54    21    55 1   
    55    22    56 1   
    56    22    57 1   
    57    22    59 1   
    58    32    59 1   
@<TRIPOS>SUBSTRUCTURE
     1 79N         1 TEMP              0 ****  ****    0 ROOT
