@<TRIPOS>MOLECULE
79O
   30    33     1     0     0
SMALL
No Charge or Current Charge


@<TRIPOS>ATOM
      1 Cl1          2.3600     2.1050     1.9500 cl         1 79O      -0.168000
      2 C9           3.6120     1.6650     0.7860 ca         1 79O       0.162000
      3 C8           4.7130     2.5270     0.6450 ca         1 79O      -0.109000
      4 C7           5.7590     2.2060    -0.2350 ca         1 79O      -0.079000
      5 C6           5.7060     1.0150    -0.9760 ca         1 79O      -0.111000
      6 C5           4.6090     0.1480    -0.8380 ca         1 79O      -0.083000
      7 C4           3.5500     0.4620     0.0440 ca         1 79O      -0.146900
      8 C3           2.4100    -0.4470     0.1500 cc         1 79O       0.542500
      9 N2           1.1680    -0.0170    -0.1060 nd         1 79O      -0.565300
     10 C10          0.1910    -0.9980     0.0270 cd         1 79O       0.165400
     11 C11         -1.2120    -0.8890    -0.1600 ca         1 79O      -0.113800
     12 C12         -2.0470     0.1760    -0.5150 ca         1 79O      -0.001000
     13 C13         -3.4290    -0.0970    -0.6050 ca         1 79O      -0.052900
     14 Br1         -4.6400     1.3030    -1.0850 br         1 79O      -0.088100
     15 C14         -3.9280    -1.3980    -0.3420 ca         1 79O      -0.052000
     16 C15         -3.0470    -2.4450     0.0150 ca         1 79O      -0.111000
     17 C16         -1.6790    -2.1570     0.0990 ca         1 79O       0.093100
     18 O2          -0.6750    -3.0570     0.4340 os         1 79O      -0.120200
     19 C1           0.4890    -2.2870     0.3770 cc         1 79O      -0.111100
     20 C2           1.8430    -2.7520     0.6430 c          1 79O       0.599200
     21 O1           2.1670    -3.8870     0.9580 o          1 79O      -0.509000
     22 N1           2.7350    -1.7400     0.4970 ns         1 79O      -0.413400
     23 H8           4.7570     3.4450     1.2260 ha         1 79O       0.136000
     24 H7           6.6090     2.8770    -0.3410 ha         1 79O       0.124000
     25 H6           6.5140     0.7650    -1.6600 ha         1 79O       0.126000
     26 H5           4.5780    -0.7650    -1.4310 ha         1 79O       0.124000
     27 H1           3.7020    -1.9680     0.6710 hn         1 79O       0.337500
     28 H12         -1.6460     1.1670    -0.7130 ha         1 79O       0.150000
     29 H14         -4.9950    -1.5930    -0.4140 ha         1 79O       0.134000
     30 H15         -3.4190    -3.4460     0.2190 ha         1 79O       0.141000
@<TRIPOS>BOND
     1     1     2 1   
     2     2     3 ar  
     3     2     7 ar  
     4     3     4 ar  
     5     3    23 1   
     6     4     5 ar  
     7     4    24 1   
     8     5     6 ar  
     9     5    25 1   
    10     6     7 ar  
    11     6    26 1   
    12     7     8 1   
    13     8     9 2   
    14     8    22 1   
    15     9    10 1   
    16    10    11 1   
    17    10    19 2   
    18    11    12 ar  
    19    11    17 ar  
    20    12    13 ar  
    21    12    28 1   
    22    13    14 1   
    23    13    15 ar  
    24    15    16 ar  
    25    15    29 1   
    26    16    17 ar  
    27    16    30 1   
    28    17    18 1   
    29    18    19 1   
    30    19    20 1   
    31    20    21 2   
    32    20    22 1   
    33    22    27 1   
@<TRIPOS>SUBSTRUCTURE
     1 79O         1 TEMP              0 ****  ****    0 ROOT
