@<TRIPOS>MOLECULE
79O
   30    33     1     0     0
SMALL
abcg2


@<TRIPOS>ATOM
      1 CL1          2.3930     2.1270     1.8890 cl         1 79O      -0.168000
      2 C9           3.6270     1.6830     0.7640 ca         1 79O       0.162000
      3 C8           4.7160     2.5290     0.6150 ca         1 79O      -0.109000
      4 C7           5.7440     2.1810    -0.2480 ca         1 79O      -0.079000
      5 C6           5.6920     0.9880    -0.9530 ca         1 79O      -0.111000
      6 C5           4.6040     0.1460    -0.7950 ca         1 79O      -0.083000
      7 C4           3.5530     0.4840     0.0560 ca         1 79O      -0.146900
      8 C3           2.4000    -0.4310     0.1700 cc         1 79O       0.542500
      9 N2           1.2030    -0.0090    -0.0770 nd         1 79O      -0.565300
     10 C10          0.2370    -0.9510     0.0270 cd         1 79O       0.165400
     11 C11         -1.1830    -0.8480    -0.1610 ca         1 79O      -0.113800
     12 C12         -2.0550     0.1870    -0.4890 ca         1 79O      -0.001000
     13 C13         -3.3970    -0.1280    -0.5720 ca         1 79O      -0.052900
     14 BR1         -4.6350     1.2270    -1.0110 br         1 79O      -0.088100
     15 C14         -3.8770    -1.4250    -0.3390 ca         1 79O      -0.052000
     16 C15         -3.0130    -2.4540    -0.0130 ca         1 79O      -0.111000
     17 C16         -1.6690    -2.1360     0.0690 ca         1 79O       0.093100
     18 O2          -0.6680    -2.9950     0.3760 os         1 79O      -0.120200
     19 C1           0.4660    -2.2620     0.3440 cc         1 79O      -0.111100
     20 C2           1.7750    -2.7640     0.6170 c          1 79O       0.599200
     21 O1           2.1040    -3.8960     0.9130 o          1 79O      -0.509000
     22 N1           2.6890    -1.7190     0.5050 ns         1 79O      -0.413400
     23 H8           4.7620     3.4510     1.1770 ha         1 79O       0.136000
     24 H7           6.5880     2.8480    -0.3600 ha         1 79O       0.124000
     25 H6           6.4930     0.7140    -1.6260 ha         1 79O       0.126000
     26 H5           4.5560    -0.7780    -1.3580 ha         1 79O       0.124000
     27 H1           3.6540    -1.9520     0.7130 hn         1 79O       0.337500
     28 H12         -1.6860     1.1880    -0.6700 ha         1 79O       0.150000
     29 H14         -4.9360    -1.6320    -0.4110 ha         1 79O       0.134000
     30 H15         -3.3800    -3.4550     0.1690 ha         1 79O       0.141000
@<TRIPOS>BOND
     1     1     2 1   
     2     2     3 ar  
     3     2     7 ar  
     4     3     4 ar  
     5     3    23 1   
     6     4     5 ar  
     7     4    24 1   
     8     5     6 ar  
     9     5    25 1   
    10     6     7 ar  
    11     6    26 1   
    12     7     8 1   
    13     8     9 2   
    14     8    22 1   
    15     9    10 1   
    16    10    11 1   
    17    10    19 2   
    18    11    12 ar  
    19    11    17 ar  
    20    12    13 ar  
    21    12    28 1   
    22    13    14 1   
    23    13    15 ar  
    24    15    16 ar  
    25    15    29 1   
    26    16    17 ar  
    27    16    30 1   
    28    17    18 1   
    29    18    19 1   
    30    19    20 1   
    31    20    21 2   
    32    20    22 1   
    33    22    27 1   
@<TRIPOS>SUBSTRUCTURE
     1 79O         1 TEMP              0 ****  ****    0 ROOT
