@<TRIPOS>MOLECULE
79P
   86    89     1     0     0
SMALL
bcc


@<TRIPOS>ATOM
      1 N1           2.7560     0.1680    -0.8350 ns         1 79P      -0.573900
      2 C13          0.7310    -1.0630    -0.4220 c          1 79P       0.669100
      3 C17         -1.9050    -2.9010     1.0500 c3         1 79P      -0.009200
      4 C26         -2.3700    -0.4300     0.9790 c          1 79P       0.661100
      5 C50          6.3760     1.3600    -1.6760 c6         1 79P       0.125800
      6 C51          7.8120     1.8020    -1.4720 c6         1 79P       0.130400
      7 O52          8.1120     2.9560    -2.2250 os         1 79P      -0.405600
      8 C53          7.2390     4.0120    -1.8900 c6         1 79P       0.130400
      9 C54          5.7890     3.6260    -2.1110 c6         1 79P       0.125800
     10 N55          5.4700     2.4420    -1.3330 n3         1 79P      -0.693600
     11 C56          4.0920     2.0600    -1.4840 c3         1 79P       0.087800
     12 C2           3.6590     1.0660    -0.4150 c          1 79P       0.664100
     13 O3           4.0730     1.1220     0.7320 o          1 79P      -0.581100
     14 C11          2.1740    -0.8420     0.0170 c3         1 79P       0.037700
     15 C12          2.9460    -2.1590    -0.0690 c3         1 79P      -0.111100
     16 N15         -0.1400    -1.2460     0.5810 ns         1 79P      -0.545900
     17 C16         -1.5340    -1.5640     0.3910 c3         1 79P       0.032700
     18 C66         -1.0100    -4.0050     0.5990 cc         1 79P      -0.147400
     19 C67          0.1890    -4.4440     1.2470 ca         1 79P      -0.093800
     20 C63          0.8290    -4.0890     2.4390 ca         1 79P      -0.088000
     21 C62          2.0110    -4.7180     2.7780 ca         1 79P      -0.158000
     22 C61          2.5720    -5.7000     1.9440 ca         1 79P      -0.112000
     23 C60          1.9600    -6.0750     0.7630 ca         1 79P      -0.146000
     24 C68          0.7650    -5.4400     0.4280 ca         1 79P      -0.050200
     25 N69         -0.0510    -5.5950    -0.6540 na         1 79P      -0.169400
     26 C65         -1.1090    -4.7370    -0.5510 cd         1 79P      -0.095100
     27 N28         -3.2110     0.1580     0.1230 ns         1 79P      -0.550900
     28 C29         -4.0480     1.2920     0.4420 c3         1 79P       0.075700
     29 C30         -3.7060     2.4580    -0.4970 c3         1 79P      -0.043100
     30 C41         -2.2530     2.8290    -0.4000 ca         1 79P      -0.085300
     31 C46         -1.3070     2.2780    -1.2590 ca         1 79P      -0.118500
     32 C45          0.0400     2.5830    -1.1260 ca         1 79P      -0.124500
     33 C44          0.4640     3.4480    -0.1260 ca         1 79P      -0.126000
     34 C43         -0.4700     4.0070     0.7360 ca         1 79P      -0.124500
     35 C42         -1.8160     3.6980     0.5980 ca         1 79P      -0.118500
     36 C31         -5.5260     0.8720     0.3880 c3         1 79P       0.135100
     37 O32         -5.7430    -0.2510     1.2140 oh         1 79P      -0.593800
     38 C37         -6.5040     2.0170     0.6880 c3         1 79P      -0.093700
     39 C38         -6.2800     2.6600     2.0550 c3         1 79P      -0.090100
     40 C39         -7.9340     1.5150     0.5290 c3         1 79P       0.144400
     41 O40         -8.8160     2.6150     0.5830 oh         1 79P      -0.603800
     42 H1           2.5190     0.1270    -1.8150 hn         1 79P       0.328500
     43 H2          -1.8550    -2.7960     2.1360 hc         1 79P       0.063200
     44 H3          -2.9490    -3.1170     0.8090 hc         1 79P       0.063200
     45 H5           6.1860     0.4970    -1.0340 h1         1 79P       0.041700
     46 H6           7.9840     1.9870    -0.4020 h1         1 79P       0.054200
     47 H7           8.4950     1.0140    -1.7930 h1         1 79P       0.054200
     48 H8           7.3800     4.3070    -0.8400 h1         1 79P       0.054200
     49 H9           7.5000     4.8650    -2.5180 h1         1 79P       0.054200
     50 H10          5.1500     4.4540    -1.7910 h1         1 79P       0.041700
     51 H11          5.6090     3.4720    -3.1890 h1         1 79P       0.041700
     52 H13          3.4660     2.9510    -1.3590 h1         1 79P       0.046700
     53 H14          3.8680     1.6690    -2.4900 h1         1 79P       0.046700
     54 H15          2.2010    -0.4740     1.0440 h1         1 79P       0.087700
     55 H16          2.9760    -2.5210    -1.0960 hc         1 79P       0.052700
     56 H17          3.9700    -2.0100     0.2740 hc         1 79P       0.052700
     57 H18          2.4890    -2.9290     0.5520 hc         1 79P       0.052700
     58 H19          0.1890    -1.1530     1.5300 hn         1 79P       0.333500
     59 H20         -1.6980    -1.6540    -0.6830 h1         1 79P       0.082700
     60 H21          0.4080    -3.3320     3.0900 ha         1 79P       0.133000
     61 H22          2.5180    -4.4500     3.6960 ha         1 79P       0.132000
     62 H23          3.5020    -6.1730     2.2320 ha         1 79P       0.130000
     63 H24          2.3950    -6.8330     0.1240 ha         1 79P       0.132000
     64 H25          0.0940    -6.2410    -1.4110 hn         1 79P       0.300700
     65 H26         -1.8660    -4.7060    -1.3190 h4         1 79P       0.163000
     66 H27         -3.2390    -0.1850    -0.8250 hn         1 79P       0.315500
     67 H28         -3.7980     1.5890     1.4630 h1         1 79P       0.089700
     68 H29         -3.9660     2.1850    -1.5240 hc         1 79P       0.054700
     69 H30         -4.3210     3.3210    -0.2370 hc         1 79P       0.054700
     70 H31         -1.6240     1.6040    -2.0460 ha         1 79P       0.128000
     71 H32          0.7570     2.1420    -1.8060 ha         1 79P       0.130500
     72 H33          1.5130     3.6940    -0.0210 ha         1 79P       0.132000
     73 H34         -0.1510     4.6870     1.5160 ha         1 79P       0.130500
     74 H35         -2.5380     4.1430     1.2750 ha         1 79P       0.128000
     75 H36         -5.7340     0.5230    -0.6310 h1         1 79P       0.065700
     76 H37         -5.4980    -0.0270     2.1180 ho         1 79P       0.412000
     77 H38         -6.3500     2.7760    -0.0860 hc         1 79P       0.064700
     78 H39         -6.3830     1.9360     2.8680 hc         1 79P       0.040367
     79 H40         -5.2940     3.1180     2.1420 hc         1 79P       0.040367
     80 H41         -7.0110     3.4470     2.2350 hc         1 79P       0.040367
     81 H42         -8.0220     0.9860    -0.4310 h1         1 79P       0.025700
     82 H43         -8.1590     0.7850     1.3160 h1         1 79P       0.025700
     83 H44         -9.7160     2.2770     0.5940 ho         1 79P       0.406000
     84 O14          0.4370    -1.1030    -1.6070 o          1 79P      -0.627100
     85 O27         -2.2410    -0.1150     2.1530 o          1 79P      -0.611100
     86 H4           6.2340     1.0290    -2.7200 h1         1 79P       0.041700
@<TRIPOS>BOND
     1     1    12 1   
     2     1    14 1   
     3     1    42 1   
     4     2    14 1   
     5     2    16 1   
     6     2    84 2   
     7     3    17 1   
     8     3    18 1   
     9     3    43 1   
    10     3    44 1   
    11     4    17 1   
    12     4    27 1   
    13     4    85 2   
    14     5     6 1   
    15     5    10 1   
    16     5    45 1   
    17     5    86 1   
    18     6     7 1   
    19     6    46 1   
    20     6    47 1   
    21     7     8 1   
    22     8     9 1   
    23     8    48 1   
    24     8    49 1   
    25     9    10 1   
    26     9    50 1   
    27     9    51 1   
    28    10    11 1   
    29    11    12 1   
    30    11    52 1   
    31    11    53 1   
    32    12    13 2   
    33    14    15 1   
    34    14    54 1   
    35    15    55 1   
    36    15    56 1   
    37    15    57 1   
    38    16    17 1   
    39    16    58 1   
    40    17    59 1   
    41    18    19 1   
    42    18    26 2   
    43    19    20 ar  
    44    19    24 ar  
    45    20    21 ar  
    46    20    60 1   
    47    21    22 ar  
    48    21    61 1   
    49    22    23 ar  
    50    22    62 1   
    51    23    24 ar  
    52    23    63 1   
    53    24    25 1   
    54    25    26 1   
    55    25    64 1   
    56    26    65 1   
    57    27    28 1   
    58    27    66 1   
    59    28    29 1   
    60    28    36 1   
    61    28    67 1   
    62    29    30 1   
    63    29    68 1   
    64    29    69 1   
    65    30    31 ar  
    66    30    35 ar  
    67    31    32 ar  
    68    31    70 1   
    69    32    33 ar  
    70    32    71 1   
    71    33    34 ar  
    72    33    72 1   
    73    34    35 ar  
    74    34    73 1   
    75    35    74 1   
    76    36    37 1   
    77    36    38 1   
    78    36    75 1   
    79    37    76 1   
    80    38    39 1   
    81    38    40 1   
    82    38    77 1   
    83    39    78 1   
    84    39    79 1   
    85    39    80 1   
    86    40    41 1   
    87    40    81 1   
    88    40    82 1   
    89    41    83 1   
@<TRIPOS>SUBSTRUCTURE
     1 79P         1 TEMP              0 ****  ****    0 ROOT
