@<TRIPOS>MOLECULE
79P
   86    89     1     0     0
SMALL
No Charge or Current Charge


@<TRIPOS>ATOM
      1 N1           3.0950     1.1350    -0.3870 ns         1 79P      -0.506900
      2 C13          0.9580    -0.0900    -0.0090 c          1 79P       0.602100
      3 C17         -1.4840    -2.4690     0.7290 c3         1 79P      -0.009200
      4 C26         -2.5180    -0.1720     1.1520 c          1 79P       0.594100
      5 C50          6.0630     0.2410    -1.6490 c6         1 79P       0.125800
      6 C51          7.4430    -0.4660    -1.7970 c6         1 79P       0.153600
      7 O52          8.1520     0.0470    -2.9510 os         1 79P      -0.452000
      8 C53          8.3710     1.4770    -2.8800 c6         1 79P       0.153600
      9 C54          7.0110     2.2270    -2.7580 c6         1 79P       0.125800
     10 N55          6.2060     1.7310    -1.5990 n3         1 79P      -0.693600
     11 C56          4.9040     2.4590    -1.4450 c3         1 79P       0.087800
     12 C2           4.0360     2.1270    -0.1960 c          1 79P       0.597100
     13 O3           4.1650     2.6990     0.8800 o          1 79P      -0.581100
     14 C11          2.1850     0.6070     0.6510 c3         1 79P       0.037700
     15 C12          2.9460    -0.3410     1.6060 c3         1 79P      -0.111100
     16 N15         -0.0780    -0.3880     0.8520 ns         1 79P      -0.478900
     17 C16         -1.3840    -0.9510     0.4390 c3         1 79P       0.032700
     18 C66         -0.3810    -3.2810     0.0990 cc         1 79P      -0.147400
     19 C67          0.8690    -3.6500     0.7030 ca         1 79P      -0.093800
     20 C63          1.3590    -3.4140     1.9960 ca         1 79P      -0.070000
     21 C62          2.6450    -3.9000     2.3150 ca         1 79P      -0.140000
     22 C61          3.4020    -4.6040     1.3500 ca         1 79P      -0.094000
     23 C60          2.8750    -4.8320     0.0600 ca         1 79P      -0.128000
     24 C68          1.5950    -4.3380    -0.2280 ca         1 79P      -0.050200
     25 N69          0.8900    -4.4530    -1.4110 na         1 79P      -0.219700
     26 C65         -0.3440    -3.7910    -1.1960 cd         1 79P      -0.145100
     27 N28         -3.6630     0.0110     0.4010 ns         1 79P      -0.483900
     28 C29         -4.6890     1.0300     0.6980 c3         1 79P       0.075700
     29 C30         -4.4160     2.3050    -0.1480 c3         1 79P      -0.043100
     30 C41         -2.9510     2.7400    -0.1200 ca         1 79P      -0.085300
     31 C46         -2.0980     2.4520    -1.2040 ca         1 79P      -0.100500
     32 C45         -0.7400     2.8110    -1.1550 ca         1 79P      -0.106500
     33 C44         -0.2240     3.4620    -0.0220 ca         1 79P      -0.108000
     34 C43         -1.0700     3.7560     1.0600 ca         1 79P      -0.106500
     35 C42         -2.4280     3.3970     1.0120 ca         1 79P      -0.100500
     36 C31         -6.1280     0.4480     0.5220 c3         1 79P       0.158300
     37 O32         -6.2360    -0.7650     1.2850 oh         1 79P      -0.656000
     38 C37         -7.3010     1.4100     0.8990 c3         1 79P      -0.093700
     39 C38         -7.2420     1.9140     2.3690 c3         1 79P      -0.090100
     40 C39         -8.6720     0.7660     0.5620 c3         1 79P       0.167600
     41 O40         -9.7180     1.7450     0.6180 oh         1 79P      -0.666000
     42 H1           3.0370     0.7310    -1.3160 hn         1 79P       0.328500
     43 H2          -1.4840    -2.6280     1.8150 hc         1 79P       0.063200
     44 H3          -2.4540    -2.8360     0.3710 hc         1 79P       0.063200
     45 H5           5.5810    -0.1320    -0.7340 h1         1 79P       0.041700
     46 H6           8.0490    -0.2990    -0.8950 h1         1 79P       0.054200
     47 H7           7.2980    -1.5490    -1.9150 h1         1 79P       0.054200
     48 H8           9.0040     1.7050    -2.0100 h1         1 79P       0.054200
     49 H9           8.9010     1.8060    -3.7850 h1         1 79P       0.054200
     50 H10          7.2100     3.3030    -2.6530 h1         1 79P       0.041700
     51 H11          6.4510     2.0930    -3.6960 h1         1 79P       0.041700
     52 H13          5.0930     3.5400    -1.4060 h1         1 79P       0.046700
     53 H14          4.2780     2.2860    -2.3300 h1         1 79P       0.046700
     54 H15          1.7920     1.4520     1.2330 h1         1 79P       0.087700
     55 H16          3.3180    -1.2180     1.0630 hc         1 79P       0.052700
     56 H17          3.8030     0.1680     2.0630 hc         1 79P       0.052700
     57 H18          2.2930    -0.6870     2.4150 hc         1 79P       0.052700
     58 H19          0.0410    -0.1250     1.8240 hn         1 79P       0.333500
     59 H20         -1.5110    -0.7930    -0.6390 h1         1 79P       0.082700
     60 H21          0.7700    -2.8710     2.7310 ha         1 79P       0.115000
     61 H22          3.0560    -3.7300     3.3080 ha         1 79P       0.114000
     62 H23          4.3930    -4.9750     1.6030 ha         1 79P       0.112000
     63 H24          3.4480    -5.3770    -0.6870 ha         1 79P       0.114000
     64 H25          1.1970    -4.9140    -2.2630 hn         1 79P       0.351000
     65 H26         -1.0940    -3.7180    -1.9790 h4         1 79P       0.213000
     66 H27         -3.6590    -0.3950    -0.5290 hn         1 79P       0.315500
     67 H28         -4.5770     1.3150     1.7520 h1         1 79P       0.089700
     68 H29         -4.7290     2.1200    -1.1830 hc         1 79P       0.054700
     69 H30         -5.0440     3.1260     0.2170 hc         1 79P       0.054700
     70 H31         -2.4840     1.9380    -2.0820 ha         1 79P       0.110000
     71 H32         -0.0860     2.5790    -1.9930 ha         1 79P       0.112500
     72 H33          0.8270     3.7370     0.0160 ha         1 79P       0.114000
     73 H34         -0.6720     4.2580     1.9390 ha         1 79P       0.112500
     74 H35         -3.0730     3.6180     1.8600 ha         1 79P       0.110000
     75 H36         -6.2400     0.2050    -0.5450 h1         1 79P       0.065700
     76 H37         -5.3400    -1.1650     1.2910 ho         1 79P       0.451000
     77 H38         -7.2130     2.2900     0.2520 hc         1 79P       0.064700
     78 H39         -7.3000     1.0780     3.0760 hc         1 79P       0.040367
     79 H40         -6.3170     2.4680     2.5650 hc         1 79P       0.040367
     80 H41         -8.0750     2.5950     2.5840 hc         1 79P       0.040367
     81 H42         -8.6270     0.3320    -0.4460 h1         1 79P       0.025700
     82 H43         -8.8770    -0.0520     1.2660 h1         1 79P       0.025700
     83 H44        -10.5580     1.2780     0.4110 ho         1 79P       0.445000
     84 O14          0.8950    -0.3240    -1.2110 o          1 79P      -0.627100
     85 O27         -2.4020     0.2790     2.2860 o          1 79P      -0.611100
     86 H4           5.4250    -0.0530    -2.4950 h1         1 79P       0.041700
@<TRIPOS>BOND
     1     1    12 1   
     2     1    14 1   
     3     1    42 1   
     4     2    14 1   
     5     2    16 1   
     6     2    84 2   
     7     3    17 1   
     8     3    18 1   
     9     3    43 1   
    10     3    44 1   
    11     4    17 1   
    12     4    27 1   
    13     4    85 2   
    14     5     6 1   
    15     5    10 1   
    16     5    45 1   
    17     5    86 1   
    18     6     7 1   
    19     6    46 1   
    20     6    47 1   
    21     7     8 1   
    22     8     9 1   
    23     8    48 1   
    24     8    49 1   
    25     9    10 1   
    26     9    50 1   
    27     9    51 1   
    28    10    11 1   
    29    11    12 1   
    30    11    52 1   
    31    11    53 1   
    32    12    13 2   
    33    14    15 1   
    34    14    54 1   
    35    15    55 1   
    36    15    56 1   
    37    15    57 1   
    38    16    17 1   
    39    16    58 1   
    40    17    59 1   
    41    18    19 1   
    42    18    26 2   
    43    19    20 ar  
    44    19    24 ar  
    45    20    21 ar  
    46    20    60 1   
    47    21    22 ar  
    48    21    61 1   
    49    22    23 ar  
    50    22    62 1   
    51    23    24 ar  
    52    23    63 1   
    53    24    25 1   
    54    25    26 1   
    55    25    64 1   
    56    26    65 1   
    57    27    28 1   
    58    27    66 1   
    59    28    29 1   
    60    28    36 1   
    61    28    67 1   
    62    29    30 1   
    63    29    68 1   
    64    29    69 1   
    65    30    31 ar  
    66    30    35 ar  
    67    31    32 ar  
    68    31    70 1   
    69    32    33 ar  
    70    32    71 1   
    71    33    34 ar  
    72    33    72 1   
    73    34    35 ar  
    74    34    73 1   
    75    35    74 1   
    76    36    37 1   
    77    36    38 1   
    78    36    75 1   
    79    37    76 1   
    80    38    39 1   
    81    38    40 1   
    82    38    77 1   
    83    39    78 1   
    84    39    79 1   
    85    39    80 1   
    86    40    41 1   
    87    40    81 1   
    88    40    82 1   
    89    41    83 1   
@<TRIPOS>SUBSTRUCTURE
     1 79P         1 TEMP              0 ****  ****    0 ROOT
