@<TRIPOS>MOLECULE
79Q
   77    82     1     0     0
SMALL
bcc


@<TRIPOS>ATOM
      1 CAY         11.9260    -1.1830     0.5360 c6         1 79Q       0.125300
      2 CAT         13.1510    -1.8210    -0.0900 c6         1 79Q       0.129400
      3 OBD         12.9940    -3.2160    -0.2310 os         1 79Q      -0.402600
      4 CAU         11.8520    -3.5120    -1.0010 c6         1 79Q       0.129400
      5 CAZ         10.5950    -2.9120    -0.4000 c6         1 79Q       0.125300
      6 NBR         10.7450    -1.4730    -0.2580 n3         1 79Q      -0.713600
      7 CAX          9.5660    -0.8400     0.2960 c3         1 79Q       0.151800
      8 CAS          8.4260    -0.7750    -0.7130 c3         1 79Q       0.098000
      9 NBA          7.3030    -0.0660    -0.1390 ns         1 79Q      -0.573900
     10 CBE          6.0270    -0.2930    -0.4910 c          1 79Q       0.682700
     11 OAA          5.6990    -1.1250    -1.3260 o          1 79Q      -0.596100
     12 CBL          5.0020     0.5420     0.2060 ca         1 79Q      -0.163600
     13 CAR          3.8120     0.8100    -0.4580 ca         1 79Q      -0.031000
     14 CBQ          2.7990     1.5490     0.1460 ca         1 79Q      -0.157600
     15 CBG          1.6010     1.8550    -0.6960 c          1 79Q       0.602300
     16 OAC          1.8070     2.1150    -1.8710 o          1 79Q      -0.533100
     17 CAM          5.1770     1.0380     1.4960 ca         1 79Q      -0.087000
     18 CAN          4.1720     1.7760     2.0980 ca         1 79Q      -0.148000
     19 CBM          2.9740     2.0370     1.4420 ca         1 79Q      -0.024300
     20 CAV          1.8800     2.7860     2.1330 c3         1 79Q      -0.037100
     21 CAW          0.6650     1.8910     2.3470 c3         1 79Q      -0.036100
     22 CBN         -0.2200     1.7020     1.1420 ca         1 79Q       0.023700
     23 CAP         -1.5700     1.5280     1.4090 ca         1 79Q      -0.232000
     24 CBP          0.2120     1.7380    -0.1990 ca         1 79Q      -0.210600
     25 CAO         -0.7660     1.6060    -1.1990 ca         1 79Q      -0.035000
     26 CAK         -2.0990     1.4200    -0.9280 ca         1 79Q      -0.215000
     27 CBH         -2.5320     1.3790     0.4050 ca         1 79Q       0.227600
     28 NBC         -3.8350     1.1770     0.7640 nu         1 79Q      -0.660000
     29 CBI         -4.9650     1.2600    -0.0530 ca         1 79Q       0.173600
     30 CAQ         -5.9900     0.3380     0.1460 ca         1 79Q      -0.163000
     31 CAJ         -5.1030     2.2550    -1.0180 ca         1 79Q      -0.160000
     32 CAL         -6.2480     2.3030    -1.7960 ca         1 79Q      -0.118000
     33 CBJ         -7.2560     1.3930    -1.5770 ca         1 79Q       0.059900
     34 FAD         -8.3730     1.4490    -2.3240 f          1 79Q      -0.148900
     35 CBO         -7.1630     0.4040    -0.6000 ca         1 79Q       0.062600
     36 NBB         -8.2240    -0.4930    -0.4620 ns         1 79Q      -0.471100
     37 CBF         -8.6140    -1.1120     0.6860 c          1 79Q       0.690700
     38 OAB         -8.0690    -0.9350     1.7610 o          1 79Q      -0.578100
     39 CBK         -9.7840    -2.0260     0.5440 ca         1 79Q      -0.157600
     40 CAH        -10.5770    -2.2510     1.6680 ca         1 79Q      -0.087000
     41 CAF        -11.6710    -3.0980     1.5930 ca         1 79Q      -0.136500
     42 CAE        -11.9710    -3.7450     0.4010 ca         1 79Q      -0.102000
     43 CAG        -11.1740    -3.5410    -0.7170 ca         1 79Q      -0.136500
     44 CAI        -10.0860    -2.6820    -0.6480 ca         1 79Q      -0.087000
     45 H1          11.8190    -1.5350     1.5760 h1         1 79Q       0.042200
     46 H2          12.0760    -0.1010     0.5770 h1         1 79Q       0.042200
     47 H3          13.3420    -1.3570    -1.0690 h1         1 79Q       0.052200
     48 H4          14.0250    -1.6510     0.5400 h1         1 79Q       0.052200
     49 H5          11.9750    -3.1410    -2.0290 h1         1 79Q       0.052200
     50 H6          11.7600    -4.5990    -1.0460 h1         1 79Q       0.052200
     51 H7           9.7610    -3.1440    -1.0660 h1         1 79Q       0.042200
     52 H8          10.3790    -3.3930     0.5700 h1         1 79Q       0.042200
     53 H10          9.2170    -1.3410     1.2140 h1         1 79Q       0.033700
     54 H11          9.8380     0.1810     0.5780 h1         1 79Q       0.033700
     55 H12          8.7750    -0.2810    -1.6240 h1         1 79Q       0.062700
     56 H13          8.0880    -1.7710    -0.9920 h1         1 79Q       0.062700
     57 H14          7.5120     0.7510     0.4140 hn         1 79Q       0.311500
     58 H15          3.6710     0.4320    -1.4620 ha         1 79Q       0.168000
     59 H16          6.0800     0.8320     2.0550 ha         1 79Q       0.131000
     60 H17          4.3190     2.1500     3.1030 ha         1 79Q       0.134000
     61 H18          2.2390     3.1340     3.1020 hc         1 79Q       0.058700
     62 H19          1.5930     3.6790     1.5690 hc         1 79Q       0.058700
     63 H20          0.9990     0.9140     2.7130 hc         1 79Q       0.057200
     64 H21          0.0560     2.3130     3.1460 hc         1 79Q       0.057200
     65 H22         -1.8990     1.5280     2.4430 ha         1 79Q       0.129000
     66 H23         -0.4570     1.6200    -2.2360 ha         1 79Q       0.152000
     67 H24         -2.7910     1.2850    -1.7470 ha         1 79Q       0.146000
     68 H25         -4.0000     0.9230     1.7250 hn         1 79Q       0.446800
     69 H26         -5.8570    -0.4390     0.8830 ha         1 79Q       0.164000
     70 H27         -4.3340     3.0020    -1.1600 ha         1 79Q       0.152000
     71 H28         -6.3670     3.0660    -2.5530 ha         1 79Q       0.153000
     72 H29         -8.8380    -0.5740    -1.2560 hn         1 79Q       0.334500
     73 H30        -10.3440    -1.7530     2.6000 ha         1 79Q       0.143000
     74 H31        -12.2890    -3.2560     2.4670 ha         1 79Q       0.137500
     75 H32        -12.8220    -4.4110     0.3450 ha         1 79Q       0.135000
     76 H33        -11.3920    -4.0550    -1.6430 ha         1 79Q       0.137500
     77 H34         -9.4660    -2.5570    -1.5270 ha         1 79Q       0.143000
@<TRIPOS>BOND
     1     1     2 1   
     2     1     6 1   
     3     1    45 1   
     4     1    46 1   
     5     2     3 1   
     6     2    47 1   
     7     2    48 1   
     8     3     4 1   
     9     4     5 1   
    10     4    49 1   
    11     4    50 1   
    12     5     6 1   
    13     5    51 1   
    14     5    52 1   
    15     6     7 1   
    16     7     8 1   
    17     7    53 1   
    18     7    54 1   
    19     8     9 1   
    20     8    55 1   
    21     8    56 1   
    22     9    10 1   
    23     9    57 1   
    24    10    11 2   
    25    10    12 1   
    26    12    13 ar  
    27    12    17 ar  
    28    13    14 ar  
    29    13    58 1   
    30    14    15 1   
    31    14    19 ar  
    32    15    16 2   
    33    15    24 1   
    34    17    18 ar  
    35    17    59 1   
    36    18    19 ar  
    37    18    60 1   
    38    19    20 1   
    39    20    21 1   
    40    20    61 1   
    41    20    62 1   
    42    21    22 1   
    43    21    63 1   
    44    21    64 1   
    45    22    23 ar  
    46    22    24 ar  
    47    23    27 ar  
    48    23    65 1   
    49    24    25 ar  
    50    25    26 ar  
    51    25    66 1   
    52    26    27 ar  
    53    26    67 1   
    54    27    28 1   
    55    28    29 1   
    56    28    68 1   
    57    29    30 ar  
    58    29    31 ar  
    59    30    35 ar  
    60    30    69 1   
    61    31    32 ar  
    62    31    70 1   
    63    32    33 ar  
    64    32    71 1   
    65    33    34 1   
    66    33    35 ar  
    67    35    36 1   
    68    36    37 1   
    69    36    72 1   
    70    37    38 2   
    71    37    39 1   
    72    39    40 ar  
    73    39    44 ar  
    74    40    41 ar  
    75    40    73 1   
    76    41    42 ar  
    77    41    74 1   
    78    42    43 ar  
    79    42    75 1   
    80    43    44 ar  
    81    43    76 1   
    82    44    77 1   
@<TRIPOS>SUBSTRUCTURE
     1 79Q         1 TEMP              0 ****  ****    0 ROOT
