@<TRIPOS>MOLECULE
79Q
   77    82     1     0     0
SMALL
No Charge or Current Charge


@<TRIPOS>ATOM
      1 CAY         11.9340    -1.6520     1.0840 c6         1 79Q       0.125300
      2 CAT         13.2530    -2.2900     0.5550 c6         1 79Q       0.152600
      3 OBD         12.9950    -3.6140     0.0300 os         1 79Q      -0.449000
      4 CAU         12.0220    -3.6080    -1.0420 c6         1 79Q       0.152600
      5 CAZ         10.6760    -2.9950    -0.5510 c6         1 79Q       0.125300
      6 NBR         10.8660    -1.6270     0.0350 n3         1 79Q      -0.713600
      7 CAX          9.6110    -0.9990     0.5230 c3         1 79Q       0.151800
      8 CAS          8.5380    -0.7440    -0.5640 c3         1 79Q       0.098000
      9 NBA          7.3670    -0.0290    -0.0420 ns         1 79Q      -0.506900
     10 CBE          6.2370     0.2500    -0.7780 c          1 79Q       0.615700
     11 OAA          6.1470    -0.0950    -1.9480 o          1 79Q      -0.596100
     12 CBL          5.1280     0.9980    -0.0690 ca         1 79Q      -0.163600
     13 CAR          3.9480     1.3170    -0.7770 ca         1 79Q      -0.013000
     14 CBQ          2.8810     2.0010    -0.1570 ca         1 79Q      -0.157600
     15 CBG          1.6700     2.3410    -0.9820 c          1 79Q       0.602300
     16 OAC          1.8390     2.8630    -2.0790 o          1 79Q      -0.533100
     17 CAM          5.2280     1.3950     1.2850 ca         1 79Q      -0.069000
     18 CAN          4.1770     2.0950     1.8970 ca         1 79Q      -0.130000
     19 CBM          3.0070     2.4060     1.1810 ca         1 79Q      -0.024300
     20 CAV          1.8880     3.1680     1.8510 c3         1 79Q      -0.037100
     21 CAW          0.6810     2.2520     2.0750 c3         1 79Q      -0.036100
     22 CBN         -0.1760     1.9470     0.8450 ca         1 79Q       0.023700
     23 CAP         -1.5140     1.5920     1.1180 ca         1 79Q      -0.214000
     24 CBP          0.2580     2.0200    -0.5130 ca         1 79Q      -0.210600
     25 CAO         -0.6860     1.7530    -1.5340 ca         1 79Q      -0.017000
     26 CAK         -2.0110     1.4130    -1.2330 ca         1 79Q      -0.197000
     27 CBH         -2.4320     1.3400     0.0960 ca         1 79Q       0.366000
     28 NBC         -3.7370     0.9840     0.4330 nu         1 79Q      -0.992000
     29 CBI         -4.9590     1.0610    -0.2380 ca         1 79Q       0.312000
     30 CAQ         -5.9970     0.1880     0.1330 ca         1 79Q      -0.145000
     31 CAJ         -5.1820     2.0170    -1.2440 ca         1 79Q      -0.142000
     32 CAL         -6.4260     2.0820    -1.8950 ca         1 79Q      -0.100000
     33 CBJ         -7.4510     1.1960    -1.5320 ca         1 79Q       0.095000
     34 FAD         -8.6420     1.2730    -2.1690 f          1 79Q      -0.184000
     35 CBO         -7.2560     0.2430    -0.5110 ca         1 79Q      -0.030000
     36 NBB         -8.3450    -0.6200    -0.1910 ns         1 79Q      -0.145000
     37 CBF         -8.5180    -1.6060     0.7740 c          1 79Q       0.623700
     38 OAB         -7.6560    -1.9000     1.5950 o          1 79Q      -0.578100
     39 CBK         -9.8640    -2.3120     0.7630 ca         1 79Q      -0.157600
     40 CAH        -10.1240    -3.3280     1.7140 ca         1 79Q      -0.069000
     41 CAF        -11.3570    -4.0010     1.7310 ca         1 79Q      -0.118500
     42 CAE        -12.3530    -3.6720     0.7980 ca         1 79Q      -0.084000
     43 CAG        -12.1120    -2.6690    -0.1520 ca         1 79Q      -0.118500
     44 CAI        -10.8800    -1.9910    -0.1740 ca         1 79Q      -0.069000
     45 H1          11.5940    -2.2250     1.9600 h1         1 79Q       0.042200
     46 H2          12.1520    -0.6320     1.4320 h1         1 79Q       0.042200
     47 H3          13.6830    -1.6620    -0.2380 h1         1 79Q       0.052200
     48 H4          13.9870    -2.3620     1.3700 h1         1 79Q       0.052200
     49 H5          12.4160    -3.0210    -1.8850 h1         1 79Q       0.052200
     50 H6          11.8600    -4.6380    -1.3880 h1         1 79Q       0.052200
     51 H7           9.9860    -2.9610    -1.4050 h1         1 79Q       0.042200
     52 H8          10.2330    -3.6710     0.1950 h1         1 79Q       0.042200
     53 H10          9.1670    -1.6210     1.3120 h1         1 79Q       0.033700
     54 H11          9.8520    -0.0290     0.9800 h1         1 79Q       0.033700
     55 H12          8.9810    -0.1510    -1.3740 h1         1 79Q       0.062700
     56 H13          8.2030    -1.7010    -0.9830 h1         1 79Q       0.062700
     57 H14          7.3780     0.2860     0.9190 hn         1 79Q       0.311500
     58 H15          3.8510     1.0260    -1.8220 ha         1 79Q       0.150000
     59 H16          6.1130     1.1760     1.8770 ha         1 79Q       0.113000
     60 H17          4.2760     2.3970     2.9370 ha         1 79Q       0.116000
     61 H18          2.2210     3.5550     2.8220 hc         1 79Q       0.058700
     62 H19          1.5920     4.0450     1.2610 hc         1 79Q       0.058700
     63 H20          1.0240     1.3130     2.5270 hc         1 79Q       0.057200
     64 H21          0.0530     2.7330     2.8350 hc         1 79Q       0.057200
     65 H22         -1.8500     1.5290     2.1490 ha         1 79Q       0.111000
     66 H23         -0.3880     1.7860    -2.5810 ha         1 79Q       0.134000
     67 H24         -2.6980     1.1830    -2.0410 ha         1 79Q       0.128000
     68 H25         -3.8100     0.5870     1.3700 hn         1 79Q       0.502000
     69 H26         -5.7990    -0.5340     0.9150 ha         1 79Q       0.146000
     70 H27         -4.4020     2.7230    -1.5130 ha         1 79Q       0.134000
     71 H28         -6.5970     2.8200    -2.6750 ha         1 79Q       0.135000
     72 H29         -9.1500    -0.4840    -0.7870 hn         1 79Q       0.168000
     73 H30         -9.3680    -3.6010     2.4480 ha         1 79Q       0.125000
     74 H31        -11.5410    -4.7790     2.4690 ha         1 79Q       0.119500
     75 H32        -13.3070    -4.1940     0.8120 ha         1 79Q       0.117000
     76 H33        -12.8840    -2.4130    -0.8760 ha         1 79Q       0.119500
     77 H34        -10.7370    -1.2210    -0.9280 ha         1 79Q       0.125000
@<TRIPOS>BOND
     1     1     2 1   
     2     1     6 1   
     3     1    45 1   
     4     1    46 1   
     5     2     3 1   
     6     2    47 1   
     7     2    48 1   
     8     3     4 1   
     9     4     5 1   
    10     4    49 1   
    11     4    50 1   
    12     5     6 1   
    13     5    51 1   
    14     5    52 1   
    15     6     7 1   
    16     7     8 1   
    17     7    53 1   
    18     7    54 1   
    19     8     9 1   
    20     8    55 1   
    21     8    56 1   
    22     9    10 1   
    23     9    57 1   
    24    10    11 2   
    25    10    12 1   
    26    12    13 ar  
    27    12    17 ar  
    28    13    14 ar  
    29    13    58 1   
    30    14    15 1   
    31    14    19 ar  
    32    15    16 2   
    33    15    24 1   
    34    17    18 ar  
    35    17    59 1   
    36    18    19 ar  
    37    18    60 1   
    38    19    20 1   
    39    20    21 1   
    40    20    61 1   
    41    20    62 1   
    42    21    22 1   
    43    21    63 1   
    44    21    64 1   
    45    22    23 ar  
    46    22    24 ar  
    47    23    27 ar  
    48    23    65 1   
    49    24    25 ar  
    50    25    26 ar  
    51    25    66 1   
    52    26    27 ar  
    53    26    67 1   
    54    27    28 1   
    55    28    29 1   
    56    28    68 1   
    57    29    30 ar  
    58    29    31 ar  
    59    30    35 ar  
    60    30    69 1   
    61    31    32 ar  
    62    31    70 1   
    63    32    33 ar  
    64    32    71 1   
    65    33    34 1   
    66    33    35 ar  
    67    35    36 1   
    68    36    37 1   
    69    36    72 1   
    70    37    38 2   
    71    37    39 1   
    72    39    40 ar  
    73    39    44 ar  
    74    40    41 ar  
    75    40    73 1   
    76    41    42 ar  
    77    41    74 1   
    78    42    43 ar  
    79    42    75 1   
    80    43    44 ar  
    81    43    76 1   
    82    44    77 1   
@<TRIPOS>SUBSTRUCTURE
     1 79Q         1 TEMP              0 ****  ****    0 ROOT
