@<TRIPOS>MOLECULE
79S
   61    65     1     0     0
SMALL
No Charge or Current Charge


@<TRIPOS>ATOM
      1 C7          19.5770    24.9190    26.0570 cc         1 79S       0.353800
      2 C9          20.4060    26.1130    24.0260 cd         1 79S      -0.133000
      3 N1          19.1270    21.6950    30.8330 na         1 79S      -0.314400
      4 C2          18.8320    22.9150    28.9900 ca         1 79S      -0.132800
      5 N2          18.5610    24.3420    26.8740 na         1 79S      -0.150600
      6 C10         19.8280    26.5770    22.8260 cd         1 79S      -0.187000
      7 C4          21.4910    23.4660    28.6940 ca         1 79S       0.427900
      8 N3          20.7980    24.7330    26.6110 nd         1 79S      -0.532100
      9 C6          17.7350    21.6480    30.6010 cc         1 79S      -0.169100
     10 C17         15.8710    28.2900    20.9370 c1         1 79S       0.300900
     11 C13         16.8480    28.0110    21.9930 c3         1 79S      -0.074600
     12 C14         16.2350    28.3180    23.3780 c          1 79S       0.610100
     13 O1          15.2290    27.7240    23.7460 o          1 79S      -0.594100
     14 N4          16.8080    29.3200    24.2070 n          1 79S      -0.404800
     15 C16         18.1680    29.8590    23.9790 c3         1 79S       0.085300
     16 C15         16.1540    29.7020    25.4800 c3         1 79S       0.085300
     17 C11         18.4930    26.2920    22.8910 cc         1 79S       0.137300
     18 O           18.2080    25.6630    24.0800 os         1 79S      -0.234000
     19 C8          19.3910    25.5700    24.7720 cc         1 79S       0.133700
     20 C           20.5580    23.9760    27.7530 ca         1 79S      -0.024600
     21 N           21.1070    22.7010    29.7580 nb         1 79S      -0.693000
     22 C1          19.2280    23.7150    27.9030 ca         1 79S      -0.004200
     23 C5          17.5610    22.4040    29.4570 cd         1 79S      -0.226200
     24 C3          19.7860    22.4430    29.8750 ca         1 79S       0.360500
     25 C18         17.1000    24.6480    27.0150 c6         1 79S       0.098300
     26 C20         16.1490    23.6070    26.3330 c6         1 79S      -0.070700
     27 C24         16.2450    23.5300    24.7840 c3         1 79S      -0.087100
     28 C21         14.6870    23.8690    26.8000 c6         1 79S      -0.070400
     29 C22         14.2450    25.3390    26.5670 c6         1 79S      -0.081400
     30 C23         15.2130    26.3390    27.2510 c6         1 79S      -0.067400
     31 C19         16.6720    26.1240    26.7750 c6         1 79S      -0.085400
     32 H1          21.4530    26.1650    24.3050 ha         1 79S       0.153000
     33 H2          19.6090    21.2420    31.6000 hn         1 79S       0.361000
     34 H3          20.3400    27.0650    22.0030 ha         1 79S       0.138000
     35 H4          22.5570    23.6640    28.5890 h4         1 79S       0.036100
     36 H5          17.0300    21.1080    31.2310 h4         1 79S       0.216000
     37 H6          17.6950    28.6730    21.7960 hc         1 79S       0.083700
     38 H7          18.5030    30.4360    24.8510 h1         1 79S       0.047367
     39 H8          18.8770    29.0380    23.8170 h1         1 79S       0.047367
     40 H9          18.1660    30.5210    23.1040 h1         1 79S       0.047367
     41 H10         15.0630    29.6190    25.3970 h1         1 79S       0.047367
     42 H11         16.5070    29.0480    26.2860 h1         1 79S       0.047367
     43 H12         16.4010    30.7420    25.7310 h1         1 79S       0.047367
     44 H13         16.5640    25.8460    22.0870 hc         1 79S       0.085700
     45 H14         17.7540    26.3530    20.8990 hc         1 79S       0.085700
     46 H15         16.5920    22.5650    28.9930 ha         1 79S       0.204000
     47 H16         16.9100    24.5340    28.0890 h1         1 79S       0.061700
     48 H17         16.4370    22.6050    26.6790 hc         1 79S       0.056700
     49 H18         17.2600    23.2730    24.4610 hc         1 79S       0.042033
     50 H19         15.5810    22.7500    24.3920 hc         1 79S       0.042033
     51 H20         15.9530    24.4710    24.3060 hc         1 79S       0.042033
     52 H21         13.9960    23.1860    26.2860 hc         1 79S       0.040200
     53 H22         14.5980    23.6350    27.8700 hc         1 79S       0.040200
     54 H23         14.1900    25.5520    25.4910 hc         1 79S       0.052200
     55 H24         13.2290    25.4850    26.9590 hc         1 79S       0.052200
     56 H25         14.8950    27.3670    27.0360 hc         1 79S       0.038200
     57 H26         15.1570    26.2200    28.3420 hc         1 79S       0.038200
     58 H27         17.3430    26.8030    27.3180 hc         1 79S       0.058200
     59 H28         16.7220    26.4060    25.7230 hc         1 79S       0.058200
     60 C12         17.3840    26.5540    21.9130 c3         1 79S      -0.091700
     61 N5          15.1200    28.5130    20.0760 n1         1 79S      -0.433000
@<TRIPOS>BOND
     1     1     5 1   
     2     1     8 2   
     3     1    19 1   
     4     2     6 1   
     5     2    19 2   
     6     2    32 1   
     7     3     9 1   
     8     3    24 1   
     9     3    33 1   
    10     4    22 ar  
    11     4    23 1   
    12     4    24 ar  
    13     5    22 1   
    14     5    25 1   
    15     6    17 2   
    16     6    34 1   
    17     7    20 ar  
    18     7    21 ar  
    19     7    35 1   
    20     8    20 1   
    21     9    23 2   
    22     9    36 1   
    23    10    11 1   
    24    10    61 3   
    25    11    12 1   
    26    11    37 1   
    27    11    60 1   
    28    12    13 2   
    29    12    14 1   
    30    14    15 1   
    31    14    16 1   
    32    15    38 1   
    33    15    39 1   
    34    15    40 1   
    35    16    41 1   
    36    16    42 1   
    37    16    43 1   
    38    17    18 1   
    39    17    60 1   
    40    18    19 1   
    41    20    22 ar  
    42    21    24 ar  
    43    23    46 1   
    44    25    26 1   
    45    25    31 1   
    46    25    47 1   
    47    26    27 1   
    48    26    28 1   
    49    26    48 1   
    50    27    49 1   
    51    27    50 1   
    52    27    51 1   
    53    28    29 1   
    54    28    52 1   
    55    28    53 1   
    56    29    30 1   
    57    29    54 1   
    58    29    55 1   
    59    30    31 1   
    60    30    56 1   
    61    30    57 1   
    62    31    58 1   
    63    31    59 1   
    64    44    60 1   
    65    45    60 1   
@<TRIPOS>SUBSTRUCTURE
     1 79S         1 TEMP              0 ****  ****    0 ROOT
