@<TRIPOS>MOLECULE
79S
   61    65     1     0     0
SMALL
abcg2


@<TRIPOS>ATOM
      1 C7          19.6020    24.6390    26.1570 cc         1 79S       0.353800
      2 C9          20.2180    26.7560    24.8490 cd         1 79S      -0.133000
      3 N1          19.1000    21.0410    30.5660 na         1 79S      -0.314400
      4 C2          18.6950    22.5550    28.9530 ca         1 79S      -0.132800
      5 N2          18.5950    24.2460    27.0310 na         1 79S      -0.150600
      6 C10         19.6940    27.3180    23.6440 cd         1 79S      -0.187000
      7 C4          21.3760    22.3130    28.1320 ca         1 79S       0.427900
      8 N3          20.7450    24.0270    26.3970 nd         1 79S      -0.532100
      9 C6          17.7840    21.4180    30.6690 cc         1 79S      -0.169100
     10 C17         16.2450    27.9220    20.7160 c1         1 79S       0.300900
     11 C13         17.1160    27.9100    21.8870 c3         1 79S      -0.074600
     12 C14         16.2710    28.2850    23.1300 c          1 79S       0.610100
     13 O1          15.4540    27.4620    23.5410 o          1 79S      -0.594100
     14 N4          16.4830    29.4850    23.6910 n          1 79S      -0.404800
     15 C16         17.4540    30.4700    23.2130 c3         1 79S       0.085300
     16 C15         15.7740    29.8360    24.9180 c3         1 79S       0.085300
     17 C11         18.6820    26.5020    23.2400 cc         1 79S       0.137300
     18 O           18.5470    25.4710    24.1240 os         1 79S      -0.234000
     19 C8          19.4870    25.6390    25.1080 cc         1 79S       0.133700
     20 C           20.5040    23.1890    27.4670 ca         1 79S      -0.024600
     21 N           20.9740    21.5760    29.1600 nb         1 79S      -0.693000
     22 C1          19.1600    23.3120    27.8670 ca         1 79S      -0.004200
     23 C5          17.4920    22.3450    29.6990 cd         1 79S      -0.226200
     24 C3          19.6910    21.7150    29.5280 ca         1 79S       0.360500
     25 C18         17.2090    24.7190    27.2300 c6         1 79S       0.098300
     26 C20         16.1720    23.7310    26.6590 c6         1 79S      -0.070700
     27 C24         16.2630    23.5280    25.1480 c3         1 79S      -0.087100
     28 C21         14.7750    24.1950    27.1070 c6         1 79S      -0.070400
     29 C22         14.4850    25.6520    26.7350 c6         1 79S      -0.081400
     30 C23         15.5650    26.5850    27.2840 c6         1 79S      -0.067400
     31 C19         16.9570    26.1650    26.8050 c6         1 79S      -0.085400
     32 H1          21.0220    27.1400    25.4550 ha         1 79S       0.153000
     33 H2          19.5670    20.3700    31.1560 hn         1 79S       0.361000
     34 H3          20.0280    28.2130    23.1470 ha         1 79S       0.138000
     35 H4          22.4110    22.2210    27.8190 h4         1 79S       0.036100
     36 H5          17.1510    20.9940    31.4300 h4         1 79S       0.216000
     37 H6          17.9110    28.6280    21.6990 hc         1 79S       0.083700
     38 H7          17.2020    31.4280    23.6600 h1         1 79S       0.047367
     39 H8          18.4710    30.2060    23.5100 h1         1 79S       0.047367
     40 H9          17.4070    30.5860    22.1330 h1         1 79S       0.047367
     41 H10         15.0510    29.0630    25.1490 h1         1 79S       0.047367
     42 H11         16.4830    29.9290    25.7440 h1         1 79S       0.047367
     43 H12         15.2620    30.7900    24.7840 h1         1 79S       0.047367
     44 H13         16.9570    25.7830    22.2570 hc         1 79S       0.085700
     45 H14         18.2640    26.2350    21.1620 hc         1 79S       0.085700
     46 H15         16.5320    22.8080    29.5500 ha         1 79S       0.204000
     47 H16         17.0880    24.7030    28.3160 h1         1 79S       0.061700
     48 H17         16.3660    22.7630    27.1270 hc         1 79S       0.056700
     49 H18         17.2510    23.1710    24.8550 hc         1 79S       0.042033
     50 H19         15.5310    22.7800    24.8380 hc         1 79S       0.042033
     51 H20         16.0650    24.4430    24.5910 hc         1 79S       0.042033
     52 H21         14.0220    23.5320    26.6750 hc         1 79S       0.040200
     53 H22         14.7040    24.0900    28.1950 hc         1 79S       0.040200
     54 H23         14.4360    25.7590    25.6480 hc         1 79S       0.052200
     55 H24         13.5050    25.9420    27.1240 hc         1 79S       0.052200
     56 H25         15.3720    27.6140    26.9790 hc         1 79S       0.038200
     57 H26         15.5390    26.5660    28.3790 hc         1 79S       0.038200
     58 H27         17.7230    26.8120    27.2380 hc         1 79S       0.058200
     59 H28         17.0070    26.2740    25.7240 hc         1 79S       0.058200
     60 C12         17.7460    26.5120    22.0830 c3         1 79S      -0.091700
     61 N5          15.5520    27.9270    19.7980 n1         1 79S      -0.433000
@<TRIPOS>BOND
     1     1     5 1   
     2     1     8 2   
     3     1    19 1   
     4     2     6 1   
     5     2    19 2   
     6     2    32 1   
     7     3     9 1   
     8     3    24 1   
     9     3    33 1   
    10     4    22 ar  
    11     4    23 1   
    12     4    24 ar  
    13     5    22 1   
    14     5    25 1   
    15     6    17 2   
    16     6    34 1   
    17     7    20 ar  
    18     7    21 ar  
    19     7    35 1   
    20     8    20 1   
    21     9    23 2   
    22     9    36 1   
    23    10    11 1   
    24    10    61 3   
    25    11    12 1   
    26    11    37 1   
    27    11    60 1   
    28    12    13 2   
    29    12    14 1   
    30    14    15 1   
    31    14    16 1   
    32    15    38 1   
    33    15    39 1   
    34    15    40 1   
    35    16    41 1   
    36    16    42 1   
    37    16    43 1   
    38    17    18 1   
    39    17    60 1   
    40    18    19 1   
    41    20    22 ar  
    42    21    24 ar  
    43    23    46 1   
    44    25    26 1   
    45    25    31 1   
    46    25    47 1   
    47    26    27 1   
    48    26    28 1   
    49    26    48 1   
    50    27    49 1   
    51    27    50 1   
    52    27    51 1   
    53    28    29 1   
    54    28    52 1   
    55    28    53 1   
    56    29    30 1   
    57    29    54 1   
    58    29    55 1   
    59    30    31 1   
    60    30    56 1   
    61    30    57 1   
    62    31    58 1   
    63    31    59 1   
    64    44    60 1   
    65    45    60 1   
@<TRIPOS>SUBSTRUCTURE
     1 79S         1 TEMP              0 ****  ****    0 ROOT
