@<TRIPOS>MOLECULE
79T
   56    60     1     0     0
SMALL
No Charge or Current Charge


@<TRIPOS>ATOM
      1 C4          -4.3960     2.6060     0.2010 ca         1 79T       0.430900
      2 C5          -4.8040    -1.4910    -0.2630 cc         1 79T      -0.227200
      3 C6          -6.1860    -1.5450    -0.2040 cd         1 79T      -0.170100
      4 N1          -6.6800    -0.2330     0.0090 na         1 79T      -0.302400
      5 C7          -1.1090     1.2920    -0.2200 cc         1 79T       0.340800
      6 C8           0.3160     1.3160    -0.4850 cc         1 79T       0.152700
      7 N2          -1.8940     0.1130    -0.1520 na         1 79T      -0.143600
      8 C9           1.0980     2.4390    -0.4970 cd         1 79T      -0.149000
      9 C10          2.4050     2.0140    -0.8120 cd         1 79T      -0.128000
     10 C11          2.3650     0.6540    -0.9810 cc         1 79T       0.142800
     11 C12          3.3990    -0.3050    -1.3400 ce         1 79T      -0.170800
     12 N3          -1.8740     2.3930    -0.0360 nd         1 79T      -0.526100
     13 C13          4.7380    -0.2940    -1.0340 cf         1 79T      -0.056900
     14 C14          5.4100     0.7010    -0.1250 c          1 79T       0.611300
     15 C15          5.3690     2.2440     1.8540 c3         1 79T       0.091300
     16 N4           4.7770     1.1400     1.0680 n          1 79T      -0.402800
     17 N5           6.2770    -2.0720    -2.1330 n1         1 79T      -0.432000
     18 C17          5.6070    -1.2580    -1.6320 ch         1 79T       0.285700
     19 O1           6.5330     1.1190    -0.3910 o          1 79T      -0.576100
     20 C16          3.7350     0.3360     1.7520 c3         1 79T       0.091300
     21 O            1.0710     0.2180    -0.8260 os         1 79T      -0.229000
     22 C           -3.1740     1.8980     0.0570 ca         1 79T      -0.024600
     23 N           -5.6050     1.9700     0.2120 nb         1 79T      -0.690000
     24 C1          -3.1950     0.5390    -0.0530 ca         1 79T      -0.005200
     25 C2          -4.4370    -0.1150    -0.0770 ca         1 79T      -0.133800
     26 C3          -5.5970     0.6250     0.0650 ca         1 79T       0.358500
     27 C18         -1.5150    -1.2600     0.3020 c6         1 79T       0.092300
     28 C20         -0.5220    -1.2790     1.5040 c6         1 79T      -0.087900
     29 C21         -0.2480    -2.7300     1.9700 c6         1 79T      -0.073900
     30 C22          0.2440    -3.6110     0.7950 c6         1 79T      -0.078400
     31 C23         -0.7780    -3.6160    -0.3690 c6         1 79T      -0.073900
     32 C19         -1.0690    -2.1790    -0.8690 c6         1 79T      -0.087900
     33 H1          -4.4070     3.6910     0.2920 h4         1 79T       0.037100
     34 H2          -4.1540    -2.3430    -0.4510 ha         1 79T       0.203000
     35 H3          -6.8480    -2.4040    -0.3070 h4         1 79T       0.217000
     36 H4          -7.6490     0.0490     0.0930 hn         1 79T       0.362000
     37 H5           0.7710     3.4540    -0.2950 ha         1 79T       0.162000
     38 H6           3.2830     2.6450    -0.9070 ha         1 79T       0.156000
     39 H7           3.0240    -1.1130    -1.9720 ha         1 79T       0.204000
     40 H10          5.6090     3.0870     1.1940 h1         1 79T       0.044867
     41 H11          4.6600     2.5890     2.6180 h1         1 79T       0.044867
     42 H12          6.2870     1.8980     2.3470 h1         1 79T       0.044867
     43 H13          2.7670     0.8490     1.6960 h1         1 79T       0.044867
     44 H14          3.6460    -0.6640     1.3100 h1         1 79T       0.044867
     45 H15          4.0010     0.2150     2.8100 h1         1 79T       0.044867
     46 H16         -2.4240    -1.7140     0.7140 h1         1 79T       0.068700
     47 H17          0.4340    -0.8080     1.2600 hc         1 79T       0.056200
     48 H18         -0.9430    -0.7000     2.3370 hc         1 79T       0.056200
     49 H19          0.5010    -2.7270     2.7740 hc         1 79T       0.044450
     50 H20         -1.1640    -3.1620     2.3980 hc         1 79T       0.044450
     51 H21          1.2150    -3.2420     0.4350 hc         1 79T       0.043700
     52 H22          0.4110    -4.6390     1.1460 hc         1 79T       0.043700
     53 H23         -0.3980    -4.2280    -1.1980 hc         1 79T       0.044450
     54 H24         -1.7130    -4.0880    -0.0370 hc         1 79T       0.044450
     55 H25         -1.8570    -2.2100    -1.6340 hc         1 79T       0.056200
     56 H26         -0.1790    -1.7870    -1.3710 hc         1 79T       0.056200
@<TRIPOS>BOND
     1     1    22 ar  
     2     1    23 ar  
     3     1    33 1   
     4     2     3 2   
     5     2    25 1   
     6     2    34 1   
     7     3     4 1   
     8     3    35 1   
     9     4    26 1   
    10     4    36 1   
    11     5     6 1   
    12     5     7 1   
    13     5    12 2   
    14     6     8 2   
    15     6    21 1   
    16     7    24 1   
    17     7    27 1   
    18     8     9 1   
    19     8    37 1   
    20     9    10 2   
    21     9    38 1   
    22    10    11 1   
    23    10    21 1   
    24    11    13 2   
    25    11    39 1   
    26    12    22 1   
    27    13    14 1   
    28    13    18 1   
    29    14    16 1   
    30    14    19 2   
    31    15    16 1   
    32    15    40 1   
    33    15    41 1   
    34    15    42 1   
    35    16    20 1   
    36    17    18 3   
    37    20    43 1   
    38    20    44 1   
    39    20    45 1   
    40    22    24 ar  
    41    23    26 ar  
    42    24    25 ar  
    43    25    26 ar  
    44    27    28 1   
    45    27    32 1   
    46    27    46 1   
    47    28    29 1   
    48    28    47 1   
    49    28    48 1   
    50    29    30 1   
    51    29    49 1   
    52    29    50 1   
    53    30    31 1   
    54    30    51 1   
    55    30    52 1   
    56    31    32 1   
    57    31    53 1   
    58    31    54 1   
    59    32    55 1   
    60    32    56 1   
@<TRIPOS>SUBSTRUCTURE
     1 79T         1 TEMP              0 ****  ****    0 ROOT
