@<TRIPOS>MOLECULE
79T
   56    60     1     0     0
SMALL
bcc


@<TRIPOS>ATOM
      1 C4          -4.5220     2.4850    -0.6530 ca         1 79T       0.496200
      2 C5          -4.9770    -1.5930     0.1000 cc         1 79T      -0.177200
      3 C6          -6.3420    -1.5290     0.0340 cd         1 79T      -0.120100
      4 N1          -6.7320    -0.2480    -0.2140 na         1 79T      -0.252100
      5 C7          -1.2640     1.2450    -0.3150 cc         1 79T       0.340800
      6 C8           0.1770     1.3880    -0.3150 cc         1 79T       0.262400
      7 N2          -1.9740     0.0870    -0.0840 na         1 79T      -0.114300
      8 C9           0.9540     2.4170     0.1320 cd         1 79T      -0.232300
      9 C10          2.2880     2.0450    -0.1380 cd         1 79T      -0.211300
     10 C11          2.2400     0.8130    -0.7340 cc         1 79T       0.252500
     11 C12          3.1980    -0.1070    -1.2640 ce         1 79T      -0.120800
     12 N3          -2.0270     2.2790    -0.5420 nd         1 79T      -0.526100
     13 C13          4.5280    -0.0990    -1.0530 cf         1 79T      -0.056900
     14 C14          5.3010     0.9330    -0.2750 c          1 79T       0.678300
     15 C15          5.8220     2.0360     1.7760 c3         1 79T       0.091300
     16 N4           5.1430     0.9730     1.0520 n          1 79T      -0.469800
     17 N5           6.0230    -1.8060    -2.2660 n1         1 79T      -0.342800
     18 C17          5.3410    -1.0430    -1.7350 ch         1 79T       0.196500
     19 O1           6.0480     1.6800    -0.8910 o          1 79T      -0.576100
     20 C16          4.3390     0.0490     1.8270 c3         1 79T       0.091300
     21 O            0.9430     0.4330    -0.8560 os         1 79T      -0.317800
     22 C           -3.3060     1.8040    -0.4790 ca         1 79T      -0.089900
     23 N           -5.6780     1.8630    -0.5710 nb         1 79T      -0.690000
     24 C1          -3.2890     0.4320    -0.2060 ca         1 79T      -0.005200
     25 C2          -4.5000    -0.2680    -0.1180 ca         1 79T      -0.199100
     26 C3          -5.6350     0.5520    -0.3170 ca         1 79T       0.423800
     27 C18         -1.5370    -1.2440     0.3510 c6         1 79T       0.063000
     28 C20         -0.5220    -1.2140     1.4920 c6         1 79T      -0.087900
     29 C21         -0.2440    -2.6390     1.9660 c6         1 79T      -0.073900
     30 C22          0.2230    -3.5270     0.8170 c6         1 79T      -0.078400
     31 C23         -0.7970    -3.5400    -0.3160 c6         1 79T      -0.073900
     32 C19         -1.1000    -2.1290    -0.8130 c6         1 79T      -0.087900
     33 H1          -4.5330     3.5490    -0.8610 h4         1 79T       0.037100
     34 H2          -4.4050    -2.4890     0.2790 ha         1 79T       0.153000
     35 H3          -7.0710    -2.3140     0.1450 h4         1 79T       0.167000
     36 H4          -7.6840     0.0640    -0.3140 hn         1 79T       0.311700
     37 H5           0.6080     3.3200     0.6060 ha         1 79T       0.180000
     38 H6           3.1670     2.6310     0.0730 ha         1 79T       0.174000
     39 H7           2.7920    -0.8850    -1.9030 ha         1 79T       0.154000
     40 H10          5.4960     3.0200     1.4360 h1         1 79T       0.044867
     41 H11          5.5860     1.9460     2.8320 h1         1 79T       0.044867
     42 H12          6.9030     1.9710     1.6560 h1         1 79T       0.044867
     43 H13          3.4040     0.5100     2.1500 h1         1 79T       0.044867
     44 H14          4.1100    -0.8470     1.2590 h1         1 79T       0.044867
     45 H15          4.8960    -0.2550     2.7120 h1         1 79T       0.044867
     46 H16         -2.4380    -1.6900     0.7780 h1         1 79T       0.068700
     47 H17          0.4220    -0.7670     1.1790 hc         1 79T       0.056200
     48 H18         -0.9110    -0.6070     2.3130 hc         1 79T       0.056200
     49 H19          0.5030    -2.6150     2.7610 hc         1 79T       0.044450
     50 H20         -1.1530    -3.0620     2.4060 hc         1 79T       0.044450
     51 H21          1.1840    -3.1600     0.4400 hc         1 79T       0.043700
     52 H22          0.4000    -4.5430     1.1770 hc         1 79T       0.043700
     53 H23         -0.4400    -4.1500    -1.1480 hc         1 79T       0.044450
     54 H24         -1.7230    -4.0090     0.0360 hc         1 79T       0.044450
     55 H25         -1.8890    -2.1540    -1.5690 hc         1 79T       0.056200
     56 H26         -0.2140    -1.7110    -1.2940 hc         1 79T       0.056200
@<TRIPOS>BOND
     1     1    22 ar  
     2     1    23 ar  
     3     1    33 1   
     4     2     3 2   
     5     2    25 1   
     6     2    34 1   
     7     3     4 1   
     8     3    35 1   
     9     4    26 1   
    10     4    36 1   
    11     5     6 1   
    12     5     7 1   
    13     5    12 2   
    14     6     8 2   
    15     6    21 1   
    16     7    24 1   
    17     7    27 1   
    18     8     9 1   
    19     8    37 1   
    20     9    10 2   
    21     9    38 1   
    22    10    11 1   
    23    10    21 1   
    24    11    13 2   
    25    11    39 1   
    26    12    22 1   
    27    13    14 1   
    28    13    18 1   
    29    14    16 1   
    30    14    19 2   
    31    15    16 1   
    32    15    40 1   
    33    15    41 1   
    34    15    42 1   
    35    16    20 1   
    36    17    18 3   
    37    20    43 1   
    38    20    44 1   
    39    20    45 1   
    40    22    24 ar  
    41    23    26 ar  
    42    24    25 ar  
    43    25    26 ar  
    44    27    28 1   
    45    27    32 1   
    46    27    46 1   
    47    28    29 1   
    48    28    47 1   
    49    28    48 1   
    50    29    30 1   
    51    29    49 1   
    52    29    50 1   
    53    30    31 1   
    54    30    51 1   
    55    30    52 1   
    56    31    32 1   
    57    31    53 1   
    58    31    54 1   
    59    32    55 1   
    60    32    56 1   
@<TRIPOS>SUBSTRUCTURE
     1 79T         1 TEMP              0 ****  ****    0 ROOT
