@<TRIPOS>MOLECULE
79V
   36    38     1     0     0
SMALL
No Charge or Current Charge


@<TRIPOS>ATOM
      1 C19         -2.8130     1.9610    -0.9430 c3         1 79V       0.136600
      2 C17         -4.0830    -1.3510     1.7950 c1         1 79V       0.315900
      3 C16         -3.5540    -0.2660     0.9380 cy         1 79V       0.209600
      4 C14         -3.4430     0.5410    -1.0210 cy         1 79V       0.158500
      5 C10         -1.1840    -0.6120    -0.2450 ca         1 79V      -0.072300
      6 C11         -0.4320    -0.4280    -1.4210 ca         1 79V      -0.105000
      7 C12          0.9710    -0.3750    -1.3690 ca         1 79V      -0.089000
      8 C13         -2.7130    -0.6700    -0.3270 cy         1 79V      -0.036400
      9 C01          5.3260    -1.1320    -1.0520 ca         1 79V      -0.126000
     10 C02          6.0040    -0.4010    -0.0640 ca         1 79V      -0.079000
     11 C03          5.2720     0.3060     0.9040 ca         1 79V      -0.153000
     12 C04          3.8670     0.2780     0.8880 ca         1 79V       0.181000
     13 C05          3.1590    -0.4600    -0.1000 cp         1 79V      -0.078000
     14 C06          3.9210    -1.1600    -1.0710 ca         1 79V      -0.075000
     15 C07          1.6640    -0.5080    -0.1430 cp         1 79V      -0.027000
     16 C08          0.8960    -0.7130     1.0300 ca         1 79V      -0.089000
     17 C09         -0.5070    -0.7670     0.9810 ca         1 79V      -0.105000
     18 N15         -4.5620     0.2560    -0.0550 n6         1 79V      -0.832400
     19 O20         -3.7770     2.9990    -1.1880 oh         1 79V      -0.660000
     20 F21          3.2020     0.9980     1.8200 f          1 79V      -0.178000
     21 H1          -2.3620     2.0940     0.0500 h1         1 79V       0.030700
     22 H2          -2.0020     2.0110    -1.6820 h1         1 79V       0.030700
     23 H3          -3.0710     0.4950     1.5640 h1         1 79V       0.064700
     24 H4          -3.6810     0.3360    -2.0730 h1         1 79V       0.095700
     25 H5          -0.9350    -0.3230    -2.3800 ha         1 79V       0.114000
     26 H6           1.5280    -0.2200    -2.2900 ha         1 79V       0.121000
     27 H7          -3.0380    -1.6290    -0.7480 hc         1 79V       0.089700
     28 H8           5.8900    -1.6800    -1.8040 ha         1 79V       0.121000
     29 H9           7.0920    -0.3790    -0.0500 ha         1 79V       0.119000
     30 H10          5.7910     0.8810     1.6670 ha         1 79V       0.133000
     31 H11          3.4140    -1.7400    -1.8390 ha         1 79V       0.121000
     32 H12          1.3960    -0.8480     1.9860 ha         1 79V       0.121000
     33 H13         -1.0580    -0.9360     1.9030 ha         1 79V       0.114000
     34 H14         -5.1240     1.0710     0.2230 hn         1 79V       0.435000
     35 H16         -3.3000     3.8570    -1.1260 ho         1 79V       0.448000
     36 N18         -4.4660    -2.2070     2.4900 n1         1 79V      -0.450000
@<TRIPOS>BOND
     1     1     4 1   
     2     1    19 1   
     3     1    21 1   
     4     1    22 1   
     5     2     3 1   
     6     2    36 3   
     7     3     8 1   
     8     3    18 1   
     9     3    23 1   
    10     4     8 1   
    11     4    18 1   
    12     4    24 1   
    13     5     6 ar  
    14     5     8 1   
    15     5    17 ar  
    16     6     7 ar  
    17     6    25 1   
    18     7    15 ar  
    19     7    26 1   
    20     8    27 1   
    21     9    10 ar  
    22     9    14 ar  
    23     9    28 1   
    24    10    11 ar  
    25    10    29 1   
    26    11    12 ar  
    27    11    30 1   
    28    12    13 ar  
    29    12    20 1   
    30    13    14 ar  
    31    13    15 1   
    32    14    31 1   
    33    15    16 ar  
    34    16    17 ar  
    35    16    32 1   
    36    17    33 1   
    37    18    34 1   
    38    19    35 1   
@<TRIPOS>SUBSTRUCTURE
     1 79V         1 TEMP              0 ****  ****    0 ROOT
