@<TRIPOS>MOLECULE
79V
   36    38     1     0     0
SMALL
bcc


@<TRIPOS>ATOM
      1 C19         -2.7340     2.0420    -0.4900 c3         1 79V       0.113400
      2 C17         -4.1600    -1.8740     1.0620 c1         1 79V       0.226700
      3 C16         -3.5910    -0.5720     0.7270 cy         1 79V       0.209600
      4 C14         -3.4250     0.7550    -0.8820 cy         1 79V       0.158500
      5 C10         -1.1610    -0.5070    -0.3410 ca         1 79V      -0.072300
      6 C11         -0.3740    -0.7570    -1.4640 ca         1 79V      -0.123000
      7 C12          1.0070    -0.7160    -1.3950 ca         1 79V      -0.107000
      8 C13         -2.6480    -0.5320    -0.4970 cy         1 79V      -0.036400
      9 C01          5.2480    -1.5060    -0.6530 ca         1 79V      -0.144000
     10 C02          5.9380    -0.4550    -0.0650 ca         1 79V      -0.097000
     11 C03          5.2390     0.6100     0.4860 ca         1 79V      -0.171000
     12 C04          3.8580     0.5970     0.4400 ca         1 79V       0.145900
     13 C05          3.1300    -0.4380    -0.1340 cp         1 79V      -0.078000
     14 C06          3.8620    -1.4910    -0.6860 ca         1 79V      -0.093000
     15 C07          1.6540    -0.4320    -0.1920 cp         1 79V      -0.027000
     16 C08          0.8700    -0.1900     0.9350 ca         1 79V      -0.107000
     17 C09         -0.5140    -0.2270     0.8590 ca         1 79V      -0.123000
     18 N15         -4.5030     0.3250     0.0240 n6         1 79V      -0.777200
     19 O20         -3.6700     3.0850    -0.6390 oh         1 79V      -0.597800
     20 F21          3.1990     1.6470     0.9570 f          1 79V      -0.142900
     21 H1          -2.3670     1.9780     0.5430 h1         1 79V       0.030700
     22 H2          -1.8550     2.1830    -1.1320 h1         1 79V       0.030700
     23 H3          -3.1440    -0.1530     1.6340 h1         1 79V       0.064700
     24 H4          -3.7310     0.8060    -1.9300 h1         1 79V       0.095700
     25 H5          -0.8500    -0.9890    -2.4100 ha         1 79V       0.132000
     26 H6           1.5890    -0.9020    -2.2890 ha         1 79V       0.139000
     27 H7          -2.9190    -1.3260    -1.1940 hc         1 79V       0.089700
     28 H8           5.7860    -2.3400    -1.0830 ha         1 79V       0.139000
     29 H9           7.0190    -0.4580    -0.0330 ha         1 79V       0.137000
     30 H10          5.7560     1.4450     0.9400 ha         1 79V       0.151000
     31 H11          3.3290    -2.3200    -1.1340 ha         1 79V       0.139000
     32 H12          1.3350     0.0040     1.8930 ha         1 79V       0.139000
     33 H13         -1.0810    -0.0450     1.7640 ha         1 79V       0.132000
     34 H14         -4.9160     1.0510     0.5970 hn         1 79V       0.379800
     35 H16         -3.2860     3.8900    -0.2800 ho         1 79V       0.409000
     36 N18         -4.6050    -2.9060     1.3080 n1         1 79V      -0.360800
@<TRIPOS>BOND
     1     1     4 1   
     2     1    19 1   
     3     1    21 1   
     4     1    22 1   
     5     2     3 1   
     6     2    36 3   
     7     3     8 1   
     8     3    18 1   
     9     3    23 1   
    10     4     8 1   
    11     4    18 1   
    12     4    24 1   
    13     5     6 ar  
    14     5     8 1   
    15     5    17 ar  
    16     6     7 ar  
    17     6    25 1   
    18     7    15 ar  
    19     7    26 1   
    20     8    27 1   
    21     9    10 ar  
    22     9    14 ar  
    23     9    28 1   
    24    10    11 ar  
    25    10    29 1   
    26    11    12 ar  
    27    11    30 1   
    28    12    13 ar  
    29    12    20 1   
    30    13    14 ar  
    31    13    15 1   
    32    14    31 1   
    33    15    16 ar  
    34    16    17 ar  
    35    16    32 1   
    36    17    33 1   
    37    18    34 1   
    38    19    35 1   
@<TRIPOS>SUBSTRUCTURE
     1 79V         1 TEMP              0 ****  ****    0 ROOT
