@<TRIPOS>MOLECULE
79W
   26    27     1     0     0
SMALL
No Charge or Current Charge


@<TRIPOS>ATOM
      1 OAH          1.5750    14.6140    24.0650 o          1 79W      -0.514100
      2 CAG          2.3540    13.7410    24.4360 c          1 79W       0.581500
      3 CAE          2.0900    12.2690    24.2650 ca         1 79W      -0.194600
      4 CAD          3.0410    11.3310    24.7200 ca         1 79W      -0.043000
      5 CAF          0.9050    11.8140    23.6520 ca         1 79W      -0.036000
      6 CAA          0.6800    10.4370    23.4990 ca         1 79W      -0.121000
      7 CAB          1.6310     9.5100    23.9540 ca         1 79W      -0.063000
      8 CAC          2.8220     9.9420    24.5700 ca         1 79W      -0.093300
      9 CAI          3.8290     8.8860    25.0540 c5         1 79W      -0.186400
     10 CAJ          4.1330     9.0830    26.5750 c5         1 79W      -0.172400
     11 CAK          5.3920     8.2350    26.7870 c          1 79W       0.589100
     12 OAP          5.4840     7.2090    27.4400 o          1 79W      -0.469100
     13 CAL          6.4230     8.7360    25.8040 c5         1 79W      -0.427400
     14 SAM          5.5260     8.9830    24.2290 s6         1 79W       1.086000
     15 OAO          5.7310     7.8200    23.3580 o          1 79W      -0.505500
     16 OAN          5.8030    10.3350    23.7280 o          1 79W      -0.505500
     17 HAD          3.9560    11.6920    25.1860 ha         1 79W       0.125000
     18 HAF          0.1590    12.5210    23.2940 ha         1 79W       0.138000
     19 HAA         -0.2350    10.0870    23.0260 ha         1 79W       0.126000
     20 HAB          1.4380     8.4470    23.8280 ha         1 79W       0.120000
     21 HAI          3.4760     7.8670    24.8500 h1         1 79W       0.099700
     22 HAJ1         4.3940    10.1290    26.7720 hc         1 79W       0.097700
     23 HAJ2         3.3190     8.7550    27.2300 hc         1 79W       0.097700
     24 HAL1         6.8200     9.7050    26.1200 h1         1 79W       0.136200
     25 HAL2         7.2140     7.9990    25.6410 h1         1 79W       0.136200
     26 HAG          3.3150    14.0090    24.9280 h4         1 79W      -0.003800
@<TRIPOS>BOND
     1     1     2 2   
     2     2     3 1   
     3     2    26 1   
     4     3     4 ar  
     5     3     5 ar  
     6     4     8 ar  
     7     4    17 1   
     8     5     6 ar  
     9     5    18 1   
    10     6     7 ar  
    11     6    19 1   
    12     7     8 ar  
    13     7    20 1   
    14     8     9 1   
    15     9    10 1   
    16     9    14 1   
    17     9    21 1   
    18    10    11 1   
    19    10    22 1   
    20    10    23 1   
    21    11    12 2   
    22    11    13 1   
    23    13    14 1   
    24    13    24 1   
    25    13    25 1   
    26    14    15 2   
    27    14    16 2   
@<TRIPOS>SUBSTRUCTURE
     1 79W         1 TEMP              0 ****  ****    0 ROOT
