@<TRIPOS>MOLECULE
79W
   26    27     1     0     0
SMALL
abcg2


@<TRIPOS>ATOM
      1 OAH          1.3310    14.5440    24.1800 o          1 79W      -0.514100
      2 CAG          2.0800    13.6860    24.6060 c          1 79W       0.581500
      3 CAE          1.9740    12.2500    24.3010 ca         1 79W      -0.194600
      4 CAD          2.9060    11.3790    24.8660 ca         1 79W      -0.043000
      5 CAF          0.9640    11.7570    23.4690 ca         1 79W      -0.036000
      6 CAA          0.8960    10.3990    23.2080 ca         1 79W      -0.121000
      7 CAB          1.8280     9.5330    23.7760 ca         1 79W      -0.063000
      8 CAC          2.8370    10.0110    24.6120 ca         1 79W      -0.093300
      9 CAI          3.8290     9.0450    25.1890 c5         1 79W      -0.186400
     10 CAJ          4.2580     9.2360    26.6460 c5         1 79W      -0.172400
     11 CAK          5.5980     8.5600    26.8740 c          1 79W       0.589100
     12 OAP          6.0590     8.3210    27.9620 o          1 79W      -0.469100
     13 CAL          6.3220     8.2100    25.5790 c5         1 79W      -0.427400
     14 SAM          5.4180     9.0600    24.2790 s6         1 79W       1.086000
     15 OAO          5.3370     8.2770    23.0650 o          1 79W      -0.505500
     16 OAN          5.9100    10.4220    24.1860 o          1 79W      -0.505500
     17 HAD          3.6820    11.7870    25.5000 ha         1 79W       0.125000
     18 HAF          0.2450    12.4430    23.0420 ha         1 79W       0.138000
     19 HAA          0.1170    10.0050    22.5690 ha         1 79W       0.126000
     20 HAB          1.7680     8.4710    23.5730 ha         1 79W       0.120000
     21 HAI          3.4750     8.0230    25.0440 h1         1 79W       0.099700
     22 HAJ1         4.3950    10.2920    26.8920 hc         1 79W       0.097700
     23 HAJ2         3.5170     8.8330    27.3350 hc         1 79W       0.097700
     24 HAL1         7.3640     8.5220    25.5830 h1         1 79W       0.136200
     25 HAL2         6.2480     7.1360    25.3970 h1         1 79W       0.136200
     26 HAG          2.9160    13.9560    25.2770 h4         1 79W      -0.003800
@<TRIPOS>BOND
     1     1     2 2   
     2     2     3 1   
     3     2    26 1   
     4     3     4 ar  
     5     3     5 ar  
     6     4     8 ar  
     7     4    17 1   
     8     5     6 ar  
     9     5    18 1   
    10     6     7 ar  
    11     6    19 1   
    12     7     8 ar  
    13     7    20 1   
    14     8     9 1   
    15     9    10 1   
    16     9    14 1   
    17     9    21 1   
    18    10    11 1   
    19    10    22 1   
    20    10    23 1   
    21    11    12 2   
    22    11    13 1   
    23    13    14 1   
    24    13    24 1   
    25    13    25 1   
    26    14    15 2   
    27    14    16 2   
@<TRIPOS>SUBSTRUCTURE
     1 79W         1 TEMP              0 ****  ****    0 ROOT
