@<TRIPOS>MOLECULE
79X
   35    38     1     0     0
SMALL
bcc


@<TRIPOS>ATOM
      1 C1           4.1760    -1.2740    -0.0740 ca         1 79X      -0.184000
      2 N1           1.1560     0.5970    -0.0330 n          1 79X      -0.264200
      3 O1           6.4850    -0.6150    -0.0930 oh         1 79X      -0.497100
      4 C2           2.8460    -0.8650    -0.0580 ca         1 79X      -0.067800
      5 O2           0.4020     2.7830    -0.0030 o          1 79X      -0.558500
      6 C3           2.5360     0.5100    -0.0480 ca         1 79X       0.010600
      7 O3          -4.2650    -1.7180     0.0300 os         1 79X      -0.291900
      8 C4           3.5220     1.4810    -0.0530 ca         1 79X      -0.092000
      9 O4          -4.7300     0.7870     0.0550 os         1 79X      -0.294900
     10 C5           4.8420     1.0590    -0.0690 ca         1 79X      -0.137000
     11 C6           5.1700    -0.3040    -0.0790 ca         1 79X       0.118100
     12 C7           1.6010    -1.6010    -0.0480 cc         1 79X      -0.123200
     13 C8           0.6100    -0.6780    -0.0330 cd         1 79X       0.020400
     14 C10          0.1930     1.5930    -0.0100 c          1 79X       0.750100
     15 C11         -1.0880     0.8520     0.0030 ca         1 79X      -0.177600
     16 C12         -0.8320    -0.5130    -0.0110 ca         1 79X      -0.004800
     17 C13         -1.8710    -1.4300    -0.0030 ca         1 79X      -0.173000
     18 C14         -3.1750    -0.9470     0.0200 ca         1 79X       0.142100
     19 C15         -3.4320     0.4510     0.0340 ca         1 79X       0.100100
     20 C16         -2.3800     1.3530     0.0260 ca         1 79X      -0.116000
     21 C21         -4.1010    -3.1250     0.0080 c3         1 79X       0.120700
     22 C23         -5.0640     2.1610     0.0650 c3         1 79X       0.119700
     23 H1           4.4270    -2.3290    -0.0810 ha         1 79X       0.135000
     24 HO1          6.6030    -1.5710    -0.0940 ho         1 79X       0.424000
     25 H4           3.2850     2.5360    -0.0450 ha         1 79X       0.157000
     26 H5           5.6380     1.7920    -0.0720 ha         1 79X       0.149000
     27 H7           1.4880    -2.6730    -0.0510 ha         1 79X       0.159000
     28 H13         -1.6670    -2.4920    -0.0130 ha         1 79X       0.150000
     29 H16         -2.5460     2.4220     0.0370 ha         1 79X       0.159000
     30 H21         -3.5790    -3.4570    -0.8920 h1         1 79X       0.045033
     31 H21A        -3.5590    -3.4820     0.8870 h1         1 79X       0.045033
     32 H21B        -5.1010    -3.5500     0.0130 h1         1 79X       0.045033
     33 H23         -4.6750     2.6680     0.9520 h1         1 79X       0.044367
     34 H23A        -4.6940     2.6750    -0.8270 h1         1 79X       0.044367
     35 H23B        -6.1490     2.2150     0.0770 h1         1 79X       0.044367
@<TRIPOS>BOND
     1     1     4 ar  
     2     1    11 ar  
     3     1    23 1   
     4     2     6 1   
     5     2    13 1   
     6     2    14 1   
     7     3    11 1   
     8     3    24 1   
     9     4     6 ar  
    10     4    12 1   
    11     5    14 2   
    12     6     8 ar  
    13     7    18 1   
    14     7    21 1   
    15     8    10 ar  
    16     8    25 1   
    17     9    19 1   
    18     9    22 1   
    19    10    11 ar  
    20    10    26 1   
    21    12    13 2   
    22    12    27 1   
    23    13    16 1   
    24    14    15 1   
    25    15    16 ar  
    26    15    20 ar  
    27    16    17 ar  
    28    17    18 ar  
    29    17    28 1   
    30    18    19 ar  
    31    19    20 ar  
    32    20    29 1   
    33    21    30 1   
    34    21    31 1   
    35    21    32 1   
    36    22    33 1   
    37    22    34 1   
    38    22    35 1   
@<TRIPOS>SUBSTRUCTURE
     1 79X         1 TEMP              0 ****  ****    0 ROOT
