@<TRIPOS>MOLECULE
79X
   35    38     1     0     0
SMALL
No Charge or Current Charge


@<TRIPOS>ATOM
      1 C1           4.1540    -1.3110    -0.0760 ca         1 79X      -0.166000
      2 N1           1.1560     0.6890    -0.0250 n          1 79X      -0.197200
      3 O1           6.4950    -0.7770    -0.1000 oh         1 79X      -0.536100
      4 C2           2.8360    -0.8400    -0.0560 ca         1 79X      -0.067800
      5 O2           0.3910     2.9210     0.0010 o          1 79X      -0.483000
      6 C3           2.5610     0.5260    -0.0430 ca         1 79X       0.010600
      7 O3          -4.2220    -1.8370     0.0220 os         1 79X      -0.315100
      8 C4           3.5780     1.4880    -0.0480 ca         1 79X      -0.074000
      9 O4          -4.7900     0.8430     0.0490 os         1 79X      -0.318100
     10 C5           4.9130     1.0270    -0.0680 ca         1 79X      -0.119000
     11 C6           5.1980    -0.3600    -0.0810 ca         1 79X       0.118100
     12 C7           1.5800    -1.5850    -0.0470 cc         1 79X      -0.173200
     13 C8           0.6450    -0.5760    -0.0280 cd         1 79X       0.020400
     14 C10          0.2090     1.7100    -0.0060 c          1 79X       0.607600
     15 C11         -1.0880     0.9420     0.0040 ca         1 79X      -0.177600
     16 C12         -0.8050    -0.4280    -0.0090 ca         1 79X      -0.004800
     17 C13         -1.8170    -1.3910    -0.0040 ca         1 79X      -0.155000
     18 C14         -3.1640    -0.9420     0.0160 ca         1 79X       0.142100
     19 C15         -3.4600     0.4550     0.0300 ca         1 79X       0.100100
     20 C16         -2.4090     1.4110     0.0240 ca         1 79X      -0.098000
     21 C21         -4.0280    -3.2620     0.0100 c3         1 79X       0.143900
     22 C23         -5.1930     2.2250     0.0640 c3         1 79X       0.142900
     23 H1           4.3590    -2.3790    -0.0860 ha         1 79X       0.117000
     24 HO1          6.5070    -1.7580    -0.1070 ho         1 79X       0.463000
     25 H4           3.3470     2.5510    -0.0370 ha         1 79X       0.139000
     26 H5           5.7290     1.7440    -0.0720 ha         1 79X       0.131000
     27 H7           1.4050    -2.6570    -0.0520 ha         1 79X       0.209000
     28 H13         -1.5530    -2.4440    -0.0150 ha         1 79X       0.132000
     29 H16         -2.5970     2.4810     0.0340 ha         1 79X       0.141000
     30 H21         -3.4860    -3.5740    -0.8920 h1         1 79X       0.045033
     31 H21A        -3.4640    -3.5870     0.8930 h1         1 79X       0.045033
     32 H21B        -4.9970    -3.7760     0.0180 h1         1 79X       0.045033
     33 H23         -4.8060     2.7350     0.9560 h1         1 79X       0.044367
     34 H23A        -4.8280     2.7480    -0.8290 h1         1 79X       0.044367
     35 H23B        -6.2870     2.3010     0.0780 h1         1 79X       0.044367
@<TRIPOS>BOND
     1     1     4 ar  
     2     1    11 ar  
     3     1    23 1   
     4     2     6 1   
     5     2    13 1   
     6     2    14 1   
     7     3    11 1   
     8     3    24 1   
     9     4     6 ar  
    10     4    12 1   
    11     5    14 2   
    12     6     8 ar  
    13     7    18 1   
    14     7    21 1   
    15     8    10 ar  
    16     8    25 1   
    17     9    19 1   
    18     9    22 1   
    19    10    11 ar  
    20    10    26 1   
    21    12    13 2   
    22    12    27 1   
    23    13    16 1   
    24    14    15 1   
    25    15    16 ar  
    26    15    20 ar  
    27    16    17 ar  
    28    17    18 ar  
    29    17    28 1   
    30    18    19 ar  
    31    19    20 ar  
    32    20    29 1   
    33    21    30 1   
    34    21    31 1   
    35    21    32 1   
    36    22    33 1   
    37    22    34 1   
    38    22    35 1   
@<TRIPOS>SUBSTRUCTURE
     1 79X         1 TEMP              0 ****  ****    0 ROOT
