@<TRIPOS>MOLECULE
79Y
   48    51     1     0     0
SMALL
abcg2


@<TRIPOS>ATOM
      1 C6           4.9780     1.8560    -0.1040 c6         1 79Y       0.154800
      2 C7           4.0110     2.6210    -0.9870 c6         1 79Y       0.160600
      3 C13          0.0850     1.7300     0.0640 cc         1 79Y      -0.250000
      4 C15         -0.8150    -0.5250    -0.0440 cc         1 79Y       0.487900
      5 C17         -1.5660    -1.7830     0.0160 ca         1 79Y      -0.118500
      6 C20         -2.8700    -4.2610     0.1180 ca         1 79Y      -0.091000
      7 C21         -3.5670    -3.0930     0.3800 ca         1 79Y      -0.110000
      8 C22         -2.9260    -1.8630     0.3320 ca         1 79Y      -0.039000
      9 C24         -4.3690    -0.0450    -0.3480 c          1 79Y       0.541600
     10 C26         -5.1360     1.1060     0.1510 cc         1 79Y       0.323000
     11 C28         -6.4490     2.8450     0.0990 cc         1 79Y      -0.214000
     12 C1           5.9240    -0.6100     1.9870 c3         1 79Y      -0.383100
     13 S2           5.8320    -0.6570     0.2110 s6         1 79Y       1.200100
     14 O3           7.0960    -0.1740    -0.3210 o          1 79Y      -0.529000
     15 O4           5.3550    -1.9740    -0.1830 o          1 79Y      -0.529000
     16 N5           4.6710     0.4330    -0.2370 n3         1 79Y      -0.724500
     17 O8           2.6710     2.3380    -0.6480 os         1 79Y      -0.450000
     18 C9           2.3730     0.9730    -0.7670 c6         1 79Y       0.148000
     19 C11          3.2880     0.1260     0.1170 c6         1 79Y       0.161800
     20 C12          0.9430     0.7710    -0.3740 cd         1 79Y       0.273300
     21 S14         -1.4340     1.0280     0.4130 ss         1 79Y       0.028600
     22 N16          0.4260    -0.4840    -0.4280 nd         1 79Y      -0.656000
     23 C18         -0.8770    -2.9710    -0.2490 ca         1 79Y      -0.066000
     24 C19         -1.5190    -4.1940    -0.2000 ca         1 79Y      -0.110000
     25 N23         -3.6690    -0.6920     0.6120 ns         1 79Y      -0.165000
     26 O25         -4.3640    -0.3550    -1.5260 o          1 79Y      -0.586100
     27 N27         -5.8860     1.8770    -0.6610 na         1 79Y      -0.247500
     28 C29         -6.0010     2.6130     1.3770 cd         1 79Y       0.230900
     29 N30         -5.1860     1.5290     1.3930 nd         1 79Y      -0.664000
     30 H1           5.9940     2.0550    -0.4380 h1         1 79Y       0.063700
     31 H2           4.8810     2.1900     0.9360 h1         1 79Y       0.063700
     32 H3           4.1590     3.6920    -0.8530 h1         1 79Y       0.060700
     33 H4           4.2040     2.3740    -2.0390 h1         1 79Y       0.060700
     34 H5           0.2540     2.7860     0.1930 h4         1 79Y       0.172000
     35 H6          -3.3770    -5.2150     0.1630 ha         1 79Y       0.120000
     36 H7          -4.6200    -3.1260     0.6260 ha         1 79Y       0.123000
     37 H8          -7.0990     3.5990    -0.3110 h4         1 79Y       0.164000
     38 H9           6.1940     0.3920     2.3130 h1         1 79Y       0.100700
     39 H10          4.9660    -0.9010     2.4130 h1         1 79Y       0.100700
     40 H11          6.6920    -1.3170     2.2990 h1         1 79Y       0.100700
     41 H12          2.5130     0.6390    -1.8080 h1         1 79Y       0.073700
     42 H13          3.0770    -0.9250    -0.0630 h1         1 79Y       0.072200
     43 H14          3.0850     0.3500     1.1730 h1         1 79Y       0.072200
     44 H15          0.1760    -2.9250    -0.4880 ha         1 79Y       0.143000
     45 H16         -0.9630    -5.0990    -0.4060 ha         1 79Y       0.121000
     46 H17         -3.8190    -0.4180     1.5750 hn         1 79Y       0.190000
     47 H18         -6.0080     1.7510    -1.6550 hn         1 79Y       0.376000
     48 H19         -6.2280     3.1740     2.2700 h4         1 79Y       0.044100
@<TRIPOS>BOND
     1     1     2 1   
     2     1    16 1   
     3     1    30 1   
     4     1    31 1   
     5     2    17 1   
     6     2    32 1   
     7     2    33 1   
     8     3    20 2   
     9     3    21 1   
    10     3    34 1   
    11     4     5 1   
    12     4    21 1   
    13     4    22 2   
    14     5     8 ar  
    15     5    23 ar  
    16     6     7 ar  
    17     6    24 ar  
    18     6    35 1   
    19     7     8 ar  
    20     7    36 1   
    21     8    25 1   
    22     9    10 1   
    23     9    25 1   
    24     9    26 2   
    25    10    27 1   
    26    10    29 2   
    27    11    27 1   
    28    11    28 2   
    29    11    37 1   
    30    12    13 1   
    31    12    38 1   
    32    12    39 1   
    33    12    40 1   
    34    13    14 2   
    35    13    15 2   
    36    13    16 1   
    37    16    19 1   
    38    17    18 1   
    39    18    19 1   
    40    18    20 1   
    41    18    41 1   
    42    19    42 1   
    43    19    43 1   
    44    20    22 1   
    45    23    24 ar  
    46    23    44 1   
    47    24    45 1   
    48    25    46 1   
    49    27    47 1   
    50    28    29 1   
    51    28    48 1   
@<TRIPOS>SUBSTRUCTURE
     1 79Y         1 TEMP              0 ****  ****    0 ROOT
