@<TRIPOS>MOLECULE
79Y
   48    51     1     0     0
SMALL
No Charge or Current Charge


@<TRIPOS>ATOM
      1 C6           4.9110     2.0200    -0.2690 c6         1 79Y       0.154800
      2 C7           3.7110     2.6860    -0.9990 c6         1 79Y       0.160600
      3 C13          0.3410     1.0030     1.0620 cc         1 79Y      -0.250000
      4 C15         -0.8450    -0.9470     0.2540 cc         1 79Y       0.487900
      5 C17         -1.7150    -2.1200     0.0640 ca         1 79Y      -0.118500
      6 C20         -3.2690    -4.4430    -0.3560 ca         1 79Y      -0.091000
      7 C21         -3.8910    -3.1900    -0.2460 ca         1 79Y      -0.110000
      8 C22         -3.1290    -2.0140    -0.0570 ca         1 79Y      -0.039000
      9 C24         -5.0160    -0.2820    -0.3750 c          1 79Y       0.541600
     10 C26         -5.2270     1.1720    -0.0510 cc         1 79Y       0.323000
     11 C28         -6.1830     3.1950     0.1270 cc         1 79Y      -0.214000
     12 C1           6.2240     0.0850     2.0600 c3         1 79Y      -0.383100
     13 S2           6.1780    -0.3200     0.3210 s6         1 79Y       1.200100
     14 O3           7.3590     0.2460    -0.3390 o          1 79Y      -0.529000
     15 O4           5.8880    -1.7490     0.1660 o          1 79Y      -0.529000
     16 N5           4.8130     0.5290    -0.3010 n3         1 79Y      -0.724500
     17 O8           2.4620     2.2140    -0.4410 os         1 79Y      -0.450000
     18 C9           2.3090     0.7710    -0.5380 c6         1 79Y       0.148000
     19 C11          3.4820     0.0610     0.1970 c6         1 79Y       0.161800
     20 C12          0.9720     0.3280     0.0410 cd         1 79Y       0.273300
     21 S14         -1.1480     0.2300     1.5130 ss         1 79Y       0.028600
     22 N16          0.3010    -0.8040    -0.4030 nd         1 79Y      -0.656000
     23 C18         -1.1040    -3.3860    -0.0850 ca         1 79Y      -0.066000
     24 C19         -1.8750    -4.5400    -0.2870 ca         1 79Y      -0.110000
     25 N23         -3.7540    -0.7330     0.0060 ns         1 79Y      -0.165000
     26 O25         -5.8600    -0.9850    -0.9290 o          1 79Y      -0.586100
     27 N27         -6.3710     1.9000    -0.3140 na         1 79Y      -0.247500
     28 C29         -4.9190     3.2170     0.6500 cd         1 79Y       0.230900
     29 N30         -4.3330     1.9730     0.5400 nd         1 79Y      -0.664000
     30 H1           5.8380     2.3600    -0.7530 h1         1 79Y       0.063700
     31 H2           4.9340     2.3870     0.7670 h1         1 79Y       0.063700
     32 H3           3.7650     3.7780    -0.8900 h1         1 79Y       0.060700
     33 H4           3.7440     2.4450    -2.0710 h1         1 79Y       0.060700
     34 H5           0.6620     1.9000     1.5750 h4         1 79Y       0.172000
     35 H6          -3.8700    -5.3380    -0.5040 ha         1 79Y       0.120000
     36 H7          -4.9750    -3.1550    -0.3050 ha         1 79Y       0.123000
     37 H8          -6.9290     3.9760     0.0420 h4         1 79Y       0.164000
     38 H9           6.3430     1.1690     2.1520 h1         1 79Y       0.100700
     39 H10          5.2870    -0.2560     2.5110 h1         1 79Y       0.100700
     40 H11          7.0810    -0.4410     2.4930 h1         1 79Y       0.100700
     41 H12          2.3430     0.4910    -1.6010 h1         1 79Y       0.073700
     42 H13          3.3720    -1.0230     0.0490 h1         1 79Y       0.072200
     43 H14          3.3830     0.2490     1.2760 h1         1 79Y       0.072200
     44 H15         -0.0210    -3.4800    -0.0280 ha         1 79Y       0.143000
     45 H16         -1.3900    -5.5090    -0.3840 ha         1 79Y       0.121000
     46 H17         -3.1830    -0.0040     0.4140 hn         1 79Y       0.190000
     47 H18         -7.2010     1.5220    -0.7600 hn         1 79Y       0.376000
     48 H19         -4.3990     4.0550     1.0990 h4         1 79Y       0.044100
@<TRIPOS>BOND
     1     1     2 1   
     2     1    16 1   
     3     1    30 1   
     4     1    31 1   
     5     2    17 1   
     6     2    32 1   
     7     2    33 1   
     8     3    20 2   
     9     3    21 1   
    10     3    34 1   
    11     4     5 1   
    12     4    21 1   
    13     4    22 2   
    14     5     8 ar  
    15     5    23 ar  
    16     6     7 ar  
    17     6    24 ar  
    18     6    35 1   
    19     7     8 ar  
    20     7    36 1   
    21     8    25 1   
    22     9    10 1   
    23     9    25 1   
    24     9    26 2   
    25    10    27 1   
    26    10    29 2   
    27    11    27 1   
    28    11    28 2   
    29    11    37 1   
    30    12    13 1   
    31    12    38 1   
    32    12    39 1   
    33    12    40 1   
    34    13    14 2   
    35    13    15 2   
    36    13    16 1   
    37    16    19 1   
    38    17    18 1   
    39    18    19 1   
    40    18    20 1   
    41    18    41 1   
    42    19    42 1   
    43    19    43 1   
    44    20    22 1   
    45    23    24 ar  
    46    23    44 1   
    47    24    45 1   
    48    25    46 1   
    49    27    47 1   
    50    28    29 1   
    51    28    48 1   
@<TRIPOS>SUBSTRUCTURE
     1 79Y         1 TEMP              0 ****  ****    0 ROOT
