@<TRIPOS>MOLECULE
79Z
   54    57     1     0     0
SMALL
No Charge or Current Charge


@<TRIPOS>ATOM
      1 C1         -50.1170     8.5950     8.9580 cx         1 79Z      -0.116400
      2 C2         -49.8420     8.8650    10.4230 cx         1 79Z      -0.091400
      3 C3         -48.9940     7.8700     9.6590 cx         1 79Z      -0.116400
      4 C4         -46.0550    15.3190    10.8820 ca         1 79Z      -0.079800
      5 C5         -44.6700    15.2220    11.1260 ca         1 79Z      -0.052500
      6 C6         -43.8610    16.3710    11.0610 ca         1 79Z      -0.153500
      7 C7         -44.4370    17.6150    10.7610 ca         1 79Z       0.186000
      8 C8         -45.8160    17.7200    10.5270 ca         1 79Z      -0.153500
      9 C9         -46.6270    16.5720    10.5910 ca         1 79Z      -0.052500
     10 C10        -49.2860    10.1920    10.9180 ca         1 79Z      -0.014300
     11 C11        -49.6880    10.7470    12.1770 ca         1 79Z       0.279000
     12 C12        -49.1920    12.0030    12.5880 ca         1 79Z      -0.118000
     13 C13        -48.3620    10.9070    10.1130 ca         1 79Z      -0.048000
     14 C14        -47.8820    12.1400    10.5720 ca         1 79Z      -0.065800
     15 C15        -48.2860    12.6750    11.7670 ca         1 79Z       0.061100
     16 O16        -47.7160    13.8990    12.0410 os         1 79Z      -0.178200
     17 C17        -46.8960    14.1300    10.9420 cc         1 79Z       0.134900
     18 C18        -46.9650    13.1000    10.0130 cd         1 79Z      -0.183400
     19 C19        -46.2650    12.9810     8.6980 c          1 79Z       0.627300
     20 O20        -46.3650    12.0070     7.9650 o          1 79Z      -0.597100
     21 N21        -45.4930    14.0610     8.3390 ns         1 79Z      -0.505900
     22 C22        -44.7240    14.1560     7.0980 c3         1 79Z       0.097300
     23 N23        -50.6020    10.0910    13.0210 nh         1 79Z      -0.805300
     24 S24        -49.9920     9.0120    14.2270 s6         1 79Z       1.248100
     25 O25        -51.1470     8.4600    14.9400 o          1 79Z      -0.534000
     26 O26        -49.0420     8.1190    13.5590 o          1 79Z      -0.534000
     27 C27        -49.0850    10.0660    15.3420 c3         1 79Z      -0.381100
     28 F28        -43.6590    18.7170    10.7000 f          1 79Z      -0.175000
     29 C29        -51.9730    10.6190    13.1870 c3         1 79Z       0.189800
     30 C30        -53.0660     9.7510    12.5130 c3         1 79Z       0.149600
     31 O31        -54.3760    10.3180    12.7110 oh         1 79Z      -0.658000
     32 H11        -49.8570     9.3590     8.2300 hc         1 79Z       0.076950
     33 H21        -51.0100     8.0260     8.7110 hc         1 79Z       0.076950
     34 H2         -50.5620     8.4260    11.1070 hc         1 79Z       0.086700
     35 H13        -49.1330     6.8150     9.8830 hc         1 79Z       0.076950
     36 H23        -47.9730     8.1440     9.4070 hc         1 79Z       0.076950
     37 H5         -44.2240    14.2570    11.3630 ha         1 79Z       0.133000
     38 H6         -42.7920    16.2980    11.2450 ha         1 79Z       0.140500
     39 H8         -46.2540    18.6880    10.2990 ha         1 79Z       0.140500
     40 H9         -47.6970    16.6540    10.4100 ha         1 79Z       0.133000
     41 H12        -49.5060    12.4420    13.5300 ha         1 79Z       0.130000
     42 H13A       -48.0320    10.5140     9.1570 ha         1 79Z       0.145000
     43 HN21       -45.4680    14.8390     8.9850 hn         1 79Z       0.320500
     44 H122       -44.1930    15.1160     7.0690 h1         1 79Z       0.043033
     45 H222       -43.9930    13.3380     7.0520 h1         1 79Z       0.043033
     46 H322       -45.4010    14.0900     6.2360 h1         1 79Z       0.043033
     47 H127       -48.7190     9.4380    16.1590 h1         1 79Z       0.101700
     48 H227       -48.2560    10.5080    14.7810 h1         1 79Z       0.101700
     49 H327       -49.7780    10.8310    15.7060 h1         1 79Z       0.101700
     50 H129       -52.0260    11.6250    12.7500 h1         1 79Z       0.055200
     51 H229       -52.2080    10.7350    14.2540 h1         1 79Z       0.055200
     52 H130       -53.0220     8.7330    12.9230 h1         1 79Z       0.060700
     53 H230       -52.8400     9.6820    11.4410 h1         1 79Z       0.060700
     54 HO31       -54.6040    10.1990    13.6600 ho         1 79Z       0.440000
@<TRIPOS>BOND
     1     1     2 1   
     2     1     3 1   
     3     1    32 1   
     4     1    33 1   
     5     2     3 1   
     6     2    10 1   
     7     2    34 1   
     8     3    35 1   
     9     3    36 1   
    10     4     5 ar  
    11     4     9 ar  
    12     4    17 1   
    13     5     6 ar  
    14     5    37 1   
    15     6     7 ar  
    16     6    38 1   
    17     7     8 ar  
    18     7    28 1   
    19     8     9 ar  
    20     8    39 1   
    21     9    40 1   
    22    10    11 ar  
    23    10    13 ar  
    24    11    12 ar  
    25    11    23 1   
    26    12    15 ar  
    27    12    41 1   
    28    13    14 ar  
    29    13    42 1   
    30    14    15 ar  
    31    14    18 1   
    32    15    16 1   
    33    16    17 1   
    34    17    18 2   
    35    18    19 1   
    36    19    20 2   
    37    19    21 1   
    38    21    22 1   
    39    21    43 1   
    40    22    44 1   
    41    22    45 1   
    42    22    46 1   
    43    23    24 1   
    44    23    29 1   
    45    24    25 2   
    46    24    26 2   
    47    24    27 1   
    48    27    47 1   
    49    27    48 1   
    50    27    49 1   
    51    29    30 1   
    52    29    50 1   
    53    29    51 1   
    54    30    31 1   
    55    30    52 1   
    56    30    53 1   
    57    31    54 1   
@<TRIPOS>SUBSTRUCTURE
     1 79Z         1 TEMP              0 ****  ****    0 ROOT
