@<TRIPOS>MOLECULE
79Z
   54    57     1     0     0
SMALL
abcg2


@<TRIPOS>ATOM
      1 C1         -50.0080     8.5340     9.1450 cx         1 79Z      -0.116400
      2 C2         -49.7350     8.8460    10.6000 cx         1 79Z      -0.091400
      3 C3         -48.9040     7.8210     9.8630 cx         1 79Z      -0.116400
      4 C4         -45.9260    15.2630    10.9640 ca         1 79Z      -0.079800
      5 C5         -44.6300    15.3240    10.4370 ca         1 79Z      -0.052500
      6 C6         -43.9110    16.5090    10.4630 ca         1 79Z      -0.153500
      7 C7         -44.5000    17.6270    11.0270 ca         1 79Z       0.186000
      8 C8         -45.7700    17.6030    11.5750 ca         1 79Z      -0.153500
      9 C9         -46.4810    16.4120    11.5420 ca         1 79Z      -0.052500
     10 C10        -49.1610    10.1540    11.0070 ca         1 79Z      -0.014300
     11 C11        -49.5600    10.7630    12.2210 ca         1 79Z       0.279000
     12 C12        -49.0660    12.0020    12.6270 ca         1 79Z      -0.118000
     13 C13        -48.2240    10.8060    10.2040 ca         1 79Z      -0.048000
     14 C14        -47.7060    12.0350    10.6020 ca         1 79Z      -0.065800
     15 C15        -48.1480    12.6080    11.7980 ca         1 79Z       0.061100
     16 O16        -47.5340    13.8150    11.9980 os         1 79Z      -0.178200
     17 C17        -46.6970    14.0270    10.9220 cc         1 79Z       0.134900
     18 C18        -46.7710    12.9830    10.0390 cd         1 79Z      -0.183400
     19 C19        -46.0800    12.7860     8.7420 c          1 79Z       0.627300
     20 O20        -45.6270    11.6800     8.4310 o          1 79Z      -0.597100
     21 N21        -46.0040    13.8530     7.9290 ns         1 79Z      -0.505900
     22 C22        -45.2820    13.8170     6.6700 c3         1 79Z       0.097300
     23 N23        -50.5140    10.1010    13.0670 nh         1 79Z      -0.805300
     24 S24        -49.9640     9.0900    14.2410 s6         1 79Z       1.248100
     25 O25        -51.0440     8.1910    14.5820 o          1 79Z      -0.534000
     26 O26        -48.7150     8.5370    13.7730 o          1 79Z      -0.534000
     27 C27        -49.6250    10.0910    15.6690 c3         1 79Z      -0.381100
     28 F28        -43.8040    18.7880    11.0500 f          1 79Z      -0.175000
     29 C29        -51.8610    10.6820    13.1930 c3         1 79Z       0.189800
     30 C30        -52.7040    10.3700    11.9600 c3         1 79Z       0.149600
     31 O31        -53.9770    11.0060    12.0340 oh         1 79Z      -0.658000
     32 H11        -49.7370     9.2870     8.4170 hc         1 79Z       0.076950
     33 H21        -50.9140     7.9880     8.9180 hc         1 79Z       0.076950
     34 H2         -50.4480     8.4390    11.2980 hc         1 79Z       0.086700
     35 H13        -49.0470     6.7820    10.1300 hc         1 79Z       0.076950
     36 H23        -47.8840     8.0910     9.6210 hc         1 79Z       0.076950
     37 H5         -44.1730    14.4390    10.0200 ha         1 79Z       0.133000
     38 H6         -42.9070    16.5660    10.0630 ha         1 79Z       0.140500
     39 H8         -46.1910    18.4990    12.0100 ha         1 79Z       0.140500
     40 H9         -47.4790    16.3770    11.9550 ha         1 79Z       0.133000
     41 H12        -49.3940    12.4590    13.5500 ha         1 79Z       0.130000
     42 H13A       -47.8930    10.3630     9.2750 ha         1 79Z       0.145000
     43 HN21       -46.4220    14.7200     8.2210 hn         1 79Z       0.320500
     44 H122       -45.3220    14.8090     6.2250 h1         1 79Z       0.043033
     45 H222       -44.2390    13.5370     6.8280 h1         1 79Z       0.043033
     46 H322       -45.7310    13.0990     5.9810 h1         1 79Z       0.043033
     47 H127       -49.2850     9.4220    16.4590 h1         1 79Z       0.101700
     48 H227       -48.8480    10.8070    15.4110 h1         1 79Z       0.101700
     49 H327       -50.5410    10.5980    15.9650 h1         1 79Z       0.101700
     50 H129       -51.7870    11.7630    13.3310 h1         1 79Z       0.055200
     51 H229       -52.3410    10.2600    14.0750 h1         1 79Z       0.055200
     52 H130       -52.8070     9.2870    11.8500 h1         1 79Z       0.060700
     53 H230       -52.2180    10.7580    11.0640 h1         1 79Z       0.060700
     54 HO31       -54.4900    10.5830    12.7340 ho         1 79Z       0.440000
@<TRIPOS>BOND
     1     1     2 1   
     2     1     3 1   
     3     1    32 1   
     4     1    33 1   
     5     2     3 1   
     6     2    10 1   
     7     2    34 1   
     8     3    35 1   
     9     3    36 1   
    10     4     5 ar  
    11     4     9 ar  
    12     4    17 1   
    13     5     6 ar  
    14     5    37 1   
    15     6     7 ar  
    16     6    38 1   
    17     7     8 ar  
    18     7    28 1   
    19     8     9 ar  
    20     8    39 1   
    21     9    40 1   
    22    10    11 ar  
    23    10    13 ar  
    24    11    12 ar  
    25    11    23 1   
    26    12    15 ar  
    27    12    41 1   
    28    13    14 ar  
    29    13    42 1   
    30    14    15 ar  
    31    14    18 1   
    32    15    16 1   
    33    16    17 1   
    34    17    18 2   
    35    18    19 1   
    36    19    20 2   
    37    19    21 1   
    38    21    22 1   
    39    21    43 1   
    40    22    44 1   
    41    22    45 1   
    42    22    46 1   
    43    23    24 1   
    44    23    29 1   
    45    24    25 2   
    46    24    26 2   
    47    24    27 1   
    48    27    47 1   
    49    27    48 1   
    50    27    49 1   
    51    29    30 1   
    52    29    50 1   
    53    29    51 1   
    54    30    31 1   
    55    30    52 1   
    56    30    53 1   
    57    31    54 1   
@<TRIPOS>SUBSTRUCTURE
     1 79Z         1 TEMP              0 ****  ****    0 ROOT
