@<TRIPOS>MOLECULE
7A1
   74    77     1     0     0
SMALL
abcg2


@<TRIPOS>ATOM
      1 C21         -1.5550     1.3030    -0.7960 ca         1 7A1      -0.049000
      2 C6           2.9930    -0.4270    -0.9330 ca         1 7A1      -0.003000
      3 C29         -8.3800     0.3240     1.1570 ca         1 7A1      -0.013000
      4 C20         -2.9250     1.2170    -0.9820 ca         1 7A1      -0.133000
      5 C1           1.6520    -0.6370    -1.2090 ca         1 7A1      -0.242000
      6 C30         -8.9000    -0.3230     2.2520 ca         1 7A1      -0.232000
      7 C17         -1.2500    -0.8510    -1.7720 ca         1 7A1      -0.095000
      8 C33         -9.9570    -0.8140    -0.1860 ca         1 7A1       0.393900
      9 C16         -0.6880     0.2810    -1.1770 cp         1 7A1      -0.166500
     10 C5           3.4480     0.7780    -0.4220 ca         1 7A1      -0.296600
     11 C28         -8.9090     0.0870    -0.1170 ca         1 7A1      -0.238300
     12 C19         -3.4960     0.0850    -1.5670 ca         1 7A1      -0.013000
     13 C18         -2.6070    -0.9240    -1.9500 ca         1 7A1       0.085000
     14 C2           0.7660     0.4050    -0.9500 cp         1 7A1       0.501500
     15 C31         -9.9660    -1.2220     2.0620 ca         1 7A1       0.600900
     16 C4           2.4700     1.7990    -0.2310 ca         1 7A1       0.684900
     17 C24         -5.9040     0.6430    -1.3790 c          1 7A1       0.665100
     18 C37         11.9020    -1.9840     0.3340 c6         1 7A1      -0.075400
     19 C36         10.9790    -2.7440     1.2790 c6         1 7A1      -0.075400
     20 C38         11.3320    -0.6010     0.0480 c6         1 7A1      -0.075400
     21 C35          9.5530    -2.7570     0.7490 c6         1 7A1       0.169800
     22 C39          9.8940    -0.7040    -0.4370 c6         1 7A1       0.169800
     23 C15          2.4930     5.2830     1.0540 c3         1 7A1      -0.112100
     24 C27         -8.3590     0.7450    -1.3520 c3         1 7A1       0.176300
     25 C14          1.8300     4.0870     0.3980 c3         1 7A1       0.234800
     26 C10          7.0150    -0.0470     0.4960 c3         1 7A1       0.096000
     27 C11          7.6600    -1.3880     0.1670 c3         1 7A1       0.156800
     28 N32        -10.4760    -1.4560     0.8560 nb         1 7A1      -0.747000
     29 N3           1.1820     1.5770    -0.4830 nb         1 7A1      -0.786000
     30 N34        -10.5470    -1.8560     3.1200 nv         1 7A1      -1.051900
     31 N22         -4.8430    -0.1180    -1.8170 ns         1 7A1      -0.159000
     32 N13          2.7910     3.0180     0.2370 nu         1 7A1      -0.925100
     33 N8           5.6030    -0.0880     0.1860 ns         1 7A1      -0.500900
     34 N25         -7.1030     0.1780    -1.7990 ns         1 7A1      -0.516900
     35 N12          9.0630    -1.4070     0.5270 n3         1 7A1      -0.724600
     36 O9           5.3840     2.1290    -0.1440 o          1 7A1      -0.636100
     37 O26         -5.7720     1.6470    -0.6950 o          1 7A1      -0.625100
     38 F23         -3.1260    -2.0250    -2.5320 f          1 7A1      -0.194000
     39 H1          -1.1490     2.1950    -0.3400 ha         1 7A1       0.142000
     40 H2           3.6930    -1.2260    -1.1430 ha         1 7A1       0.111000
     41 H4          -3.5470     2.0380    -0.6690 ha         1 7A1       0.155000
     42 H5           1.3290    -1.5870    -1.6070 ha         1 7A1       0.125000
     43 H6          -8.5030    -0.1470     3.2440 ha         1 7A1       0.124000
     44 H7          -0.6490    -1.6850    -2.1090 ha         1 7A1       0.130000
     45 H8         -10.4120    -1.0350    -1.1480 h4         1 7A1       0.011100
     46 H9          12.9090    -1.9110     0.7500 hc         1 7A1       0.039200
     47 H10         11.9900    -2.5380    -0.6070 hc         1 7A1       0.039200
     48 H11         11.3230    -3.7710     1.4160 hc         1 7A1       0.047200
     49 H12         10.9880    -2.2690     2.2650 hc         1 7A1       0.047200
     50 H13         11.3610     0.0090     0.9560 hc         1 7A1       0.047200
     51 H14         11.9300    -0.0830    -0.7050 hc         1 7A1       0.047200
     52 H15          9.5170    -3.3600    -0.1760 h1         1 7A1       0.029950
     53 H16          8.8980    -3.2510     1.4710 h1         1 7A1       0.029950
     54 H17          9.4940     0.2980    -0.6020 h1         1 7A1       0.029950
     55 H18          9.8790    -1.2130    -1.4180 h1         1 7A1       0.029950
     56 H19          2.8680     5.0350     2.0470 hc         1 7A1       0.043700
     57 H20          3.3290     5.6520     0.4570 hc         1 7A1       0.043700
     58 H21          1.7770     6.0970     1.1590 hc         1 7A1       0.043700
     59 H22         -9.0730     0.6440    -2.1700 h1         1 7A1       0.065700
     60 H23         -8.2180     1.8130    -1.1920 h1         1 7A1       0.065700
     61 H24          0.9930     3.7400     1.0060 h1         1 7A1       0.048700
     62 H25          1.4060     4.3780    -0.5690 h1         1 7A1       0.048700
     63 H26          7.1770     0.1790     1.5550 h1         1 7A1       0.062200
     64 H27          7.4680     0.7590    -0.0790 h1         1 7A1       0.062200
     65 H28          7.1500    -2.1660     0.7430 h1         1 7A1       0.031700
     66 H29          7.4940    -1.6270    -0.8960 h1         1 7A1       0.031700
     67 H30        -10.0160    -1.9260     3.9720 hn         1 7A1       0.472000
     68 H31        -11.0920    -2.6750     2.9060 hn         1 7A1       0.472000
     69 H32         -5.0640    -0.9520    -2.3380 hn         1 7A1       0.158000
     70 H33          3.7730     3.2420     0.2790 hn         1 7A1       0.529000
     71 H34          5.1130    -0.9400     0.4060 hn         1 7A1       0.311500
     72 H35         -7.1530    -0.7080    -2.2760 hn         1 7A1       0.309500
     73 C7           4.8820     1.0060    -0.1170 c          1 7A1       0.634700
     74 H3          -7.5590     1.0190     1.2820 ha         1 7A1       0.135000
@<TRIPOS>BOND
     1     1     4 ar  
     2     1     9 ar  
     3     1    39 1   
     4     2     5 ar  
     5     2    10 ar  
     6     2    40 1   
     7     3     6 ar  
     8     3    11 ar  
     9     3    74 1   
    10     4    12 ar  
    11     4    41 1   
    12     5    14 ar  
    13     5    42 1   
    14     6    15 ar  
    15     6    43 1   
    16     7     9 ar  
    17     7    13 ar  
    18     7    44 1   
    19     8    11 ar  
    20     8    28 ar  
    21     8    45 1   
    22     9    14 1   
    23    10    16 ar  
    24    10    73 1   
    25    11    24 1   
    26    12    13 ar  
    27    12    31 1   
    28    13    38 1   
    29    14    29 ar  
    30    15    28 ar  
    31    15    30 1   
    32    16    29 ar  
    33    16    32 1   
    34    17    31 1   
    35    17    34 1   
    36    17    37 2   
    37    18    19 1   
    38    18    20 1   
    39    18    46 1   
    40    18    47 1   
    41    19    21 1   
    42    19    48 1   
    43    19    49 1   
    44    20    22 1   
    45    20    50 1   
    46    20    51 1   
    47    21    35 1   
    48    21    52 1   
    49    21    53 1   
    50    22    35 1   
    51    22    54 1   
    52    22    55 1   
    53    23    25 1   
    54    23    56 1   
    55    23    57 1   
    56    23    58 1   
    57    24    34 1   
    58    24    59 1   
    59    24    60 1   
    60    25    32 1   
    61    25    61 1   
    62    25    62 1   
    63    26    27 1   
    64    26    33 1   
    65    26    63 1   
    66    26    64 1   
    67    27    35 1   
    68    27    65 1   
    69    27    66 1   
    70    30    67 1   
    71    30    68 1   
    72    31    69 1   
    73    32    70 1   
    74    33    71 1   
    75    33    73 1   
    76    34    72 1   
    77    36    73 2   
@<TRIPOS>SUBSTRUCTURE
     1 7A1         1 TEMP              0 ****  ****    0 ROOT
