@<TRIPOS>MOLECULE
7A1
   74    77     1     0     0
SMALL
No Charge or Current Charge


@<TRIPOS>ATOM
      1 C21         -1.6450     1.2720    -0.2830 ca         1 7A1      -0.049000
      2 C6           2.9820    -0.5460    -0.3660 ca         1 7A1      -0.003000
      3 C29         -8.9330     0.3160     1.1070 ca         1 7A1      -0.013000
      4 C20         -3.0310     1.1740    -0.4990 ca         1 7A1      -0.133000
      5 C1           1.6100    -0.7090    -0.5930 ca         1 7A1      -0.242000
      6 C30         -9.6250    -0.3580     2.1230 ca         1 7A1      -0.232000
      7 C17         -1.3000    -0.7920    -1.5050 ca         1 7A1      -0.095000
      8 C33        -10.2810    -0.9340    -0.4730 ca         1 7A1       0.393900
      9 C16         -0.7410     0.2910    -0.7740 cp         1 7A1      -0.166500
     10 C5           3.4680     0.7480    -0.0800 ca         1 7A1      -0.296600
     11 C28         -9.2710     0.0180    -0.2260 ca         1 7A1      -0.238300
     12 C19         -3.5690     0.0880    -1.2210 ca         1 7A1      -0.013000
     13 C18         -2.6840    -0.8880    -1.7200 ca         1 7A1       0.085000
     14 C2           0.7430     0.4040    -0.5370 cp         1 7A1       0.501500
     15 C31        -10.6070    -1.2800     1.7570 ca         1 7A1       0.600900
     16 C4           2.5260     1.7900    -0.0360 ca         1 7A1       0.684900
     17 C24         -6.0680     0.6840    -1.1330 c          1 7A1       0.665100
     18 C37         12.2300    -2.0110     0.0970 c6         1 7A1      -0.075400
     19 C36         11.3380    -2.9170     0.9750 c6         1 7A1      -0.075400
     20 C38         11.6560    -0.5770     0.0640 c6         1 7A1      -0.075400
     21 C35          9.8610    -2.8560     0.5130 c6         1 7A1       0.169800
     22 C39         10.1690    -0.5790    -0.3680 c6         1 7A1       0.169800
     23 C15          2.8810     5.5430     0.4470 c3         1 7A1      -0.112100
     24 C27         -8.5680     0.7100    -1.3790 c3         1 7A1       0.176300
     25 C14          2.0640     4.3040     0.0500 c3         1 7A1       0.234800
     26 C10          7.2070    -0.0410     0.3810 c3         1 7A1       0.096000
     27 C11          7.8880    -1.4180     0.1870 c3         1 7A1       0.156800
     28 N32        -10.9450    -1.5810     0.5110 nb         1 7A1      -0.747000
     29 N3           1.2190     1.6290    -0.2520 nb         1 7A1      -0.786000
     30 N34        -11.3230    -1.9840     2.6360 nv         1 7A1      -1.051900
     31 N22         -4.9610    -0.0740    -1.4780 ns         1 7A1      -0.159000
     32 N13          2.8670     3.0910     0.2420 nu         1 7A1      -0.925100
     33 N8           5.7550    -0.0950     0.1630 ns         1 7A1      -0.500900
     34 N25         -7.2400     0.1390    -1.6000 ns         1 7A1      -0.516900
     35 N12          9.3390    -1.4600     0.5080 n3         1 7A1      -0.724600
     36 O9           5.3900     2.1230     0.3620 o          1 7A1      -0.636100
     37 O26         -6.0390     1.7220    -0.4880 o          1 7A1      -0.625100
     38 F23         -3.1650    -1.9390    -2.4250 f          1 7A1      -0.194000
     39 H1          -1.2690     2.1220     0.2830 ha         1 7A1       0.142000
     40 H2           3.6310    -1.4180    -0.4180 ha         1 7A1       0.111000
     41 H4          -3.6670     1.9540    -0.0940 ha         1 7A1       0.155000
     42 H5           1.2220    -1.7010    -0.7970 ha         1 7A1       0.125000
     43 H6          -9.4040    -0.1670     3.1680 ha         1 7A1       0.124000
     44 H7          -0.6630    -1.5630    -1.9270 ha         1 7A1       0.130000
     45 H8         -10.5670    -1.1890    -1.4930 h4         1 7A1       0.011100
     46 H9          13.2580    -2.0000     0.4840 hc         1 7A1       0.039200
     47 H10         12.2790    -2.4150    -0.9240 hc         1 7A1       0.039200
     48 H11         11.6980    -3.9540     0.9330 hc         1 7A1       0.047200
     49 H12         11.4070    -2.6020     2.0250 hc         1 7A1       0.047200
     50 H13         11.7470    -0.1180     1.0580 hc         1 7A1       0.047200
     51 H14         12.2420     0.0470    -0.6240 hc         1 7A1       0.047200
     52 H15          9.7820    -3.2940    -0.4930 h1         1 7A1       0.029950
     53 H16          9.2600    -3.4850     1.1870 h1         1 7A1       0.029950
     54 H17          9.8060     0.4580    -0.3340 h1         1 7A1       0.029950
     55 H18         10.0990    -0.9120    -1.4140 h1         1 7A1       0.029950
     56 H19          3.1790     5.4920     1.5010 hc         1 7A1       0.043700
     57 H20          3.7830     5.6300    -0.1700 hc         1 7A1       0.043700
     58 H21          2.2820     6.4500     0.3050 hc         1 7A1       0.043700
     59 H22         -9.1560     0.5950    -2.3000 h1         1 7A1       0.065700
     60 H23         -8.4860     1.7860    -1.1750 h1         1 7A1       0.065700
     61 H24          1.1530     4.2610     0.6640 h1         1 7A1       0.048700
     62 H25          1.7600     4.3950    -1.0030 h1         1 7A1       0.048700
     63 H26          7.3960     0.3140     1.4020 h1         1 7A1       0.062200
     64 H27          7.6350     0.6870    -0.3200 h1         1 7A1       0.062200
     65 H28          7.3600    -2.1350     0.8300 h1         1 7A1       0.031700
     66 H29          7.7280    -1.7430    -0.8510 h1         1 7A1       0.031700
     67 H30        -10.9360    -2.0980     3.5660 hn         1 7A1       0.472000
     68 H31        -11.8240    -2.7750     2.2510 hn         1 7A1       0.472000
     69 H32         -5.1760    -0.9040    -2.0130 hn         1 7A1       0.158000
     70 H33          3.8780     3.1960     0.3600 hn         1 7A1       0.529000
     71 H34          5.3220    -0.9950     0.0060 hn         1 7A1       0.311500
     72 H35         -7.1730    -0.7240    -2.1240 hn         1 7A1       0.309500
     73 C7           4.9300     1.0050     0.1690 c          1 7A1       0.634700
     74 H3          -8.1600     1.0450     1.3450 ha         1 7A1       0.135000
@<TRIPOS>BOND
     1     1     4 ar  
     2     1     9 ar  
     3     1    39 1   
     4     2     5 ar  
     5     2    10 ar  
     6     2    40 1   
     7     3     6 ar  
     8     3    11 ar  
     9     3    74 1   
    10     4    12 ar  
    11     4    41 1   
    12     5    14 ar  
    13     5    42 1   
    14     6    15 ar  
    15     6    43 1   
    16     7     9 ar  
    17     7    13 ar  
    18     7    44 1   
    19     8    11 ar  
    20     8    28 ar  
    21     8    45 1   
    22     9    14 1   
    23    10    16 ar  
    24    10    73 1   
    25    11    24 1   
    26    12    13 ar  
    27    12    31 1   
    28    13    38 1   
    29    14    29 ar  
    30    15    28 ar  
    31    15    30 1   
    32    16    29 ar  
    33    16    32 1   
    34    17    31 1   
    35    17    34 1   
    36    17    37 2   
    37    18    19 1   
    38    18    20 1   
    39    18    46 1   
    40    18    47 1   
    41    19    21 1   
    42    19    48 1   
    43    19    49 1   
    44    20    22 1   
    45    20    50 1   
    46    20    51 1   
    47    21    35 1   
    48    21    52 1   
    49    21    53 1   
    50    22    35 1   
    51    22    54 1   
    52    22    55 1   
    53    23    25 1   
    54    23    56 1   
    55    23    57 1   
    56    23    58 1   
    57    24    34 1   
    58    24    59 1   
    59    24    60 1   
    60    25    32 1   
    61    25    61 1   
    62    25    62 1   
    63    26    27 1   
    64    26    33 1   
    65    26    63 1   
    66    26    64 1   
    67    27    35 1   
    68    27    65 1   
    69    27    66 1   
    70    30    67 1   
    71    30    68 1   
    72    31    69 1   
    73    32    70 1   
    74    33    71 1   
    75    33    73 1   
    76    34    72 1   
    77    36    73 2   
@<TRIPOS>SUBSTRUCTURE
     1 7A1         1 TEMP              0 ****  ****    0 ROOT
