@<TRIPOS>MOLECULE
7A2
   19    18     1     0     0
SMALL
No Charge or Current Charge


@<TRIPOS>ATOM
      1 C            2.7470    -0.2760    -0.0650 c          1 7A2       0.723000
      2 O            3.2090     0.7750    -0.4820 o          1 7A2      -0.782000
      3 C1           1.4380    -0.8050    -0.6900 c3         1 7A2      -0.201400
      4 C2           0.1710    -0.2560     0.0570 c3         1 7A2       0.077000
      5 C3           0.1690     1.3470     0.0260 c          1 7A2       0.788000
      6 C4          -1.1500    -0.7720    -0.6230 c3         1 7A2       0.005300
      7 C5          -2.4380    -0.1240     0.0200 c          1 7A2       0.700000
      8 O1           3.3090    -0.9530     0.7850 o          1 7A2      -0.782000
      9 O2           0.1860    -0.8170     1.3980 oh         1 7A2      -0.634000
     10 O3           0.1440     1.9210    -1.0600 o          1 7A2      -0.763500
     11 O4           0.1770     1.9720     1.0840 o          1 7A2      -0.763500
     12 O5          -1.2210    -2.2350    -0.5850 oh         1 7A2      -0.750000
     13 O6          -2.8980     0.8920    -0.4800 o          1 7A2      -0.754000
     14 O7          -3.0710    -0.8040     0.8200 o          1 7A2      -0.754000
     15 H2           1.3480    -0.4470    -1.7230 hc         1 7A2       0.006700
     16 H3           1.4080    -1.8990    -0.6110 hc         1 7A2       0.006700
     17 H           -1.1320    -0.4430    -1.6710 h1         1 7A2       0.038700
     18 H4          -0.1060    -1.7450     1.2770 ho         1 7A2       0.390000
     19 H6          -2.0280    -2.4280    -0.0480 ho         1 7A2       0.450000
@<TRIPOS>BOND
     1     1     2 1   
     2     1     3 1   
     3     1     8 1   
     4     3     4 1   
     5     3    15 1   
     6     3    16 1   
     7     4     5 1   
     8     4     6 1   
     9     4     9 1   
    10     5    10 1   
    11     5    11 1   
    12     6     7 1   
    13     6    12 1   
    14     6    17 1   
    15     7    13 1   
    16     7    14 1   
    17     9    18 1   
    18    12    19 1   
@<TRIPOS>SUBSTRUCTURE
     1 7A2         1 TEMP              0 ****  ****    0 ROOT
