@<TRIPOS>MOLECULE
7A2
   19    18     1     0     0
SMALL
abcg2


@<TRIPOS>ATOM
      1 C            2.6610    -0.4260     0.0650 c          1 7A2       0.723000
      2 O            3.0900     0.7430    -0.0330 o          1 7A2      -0.782000
      3 C1           1.3710    -0.7660    -0.6940 c3         1 7A2      -0.201400
      4 C2           0.1270    -0.1630    -0.0200 c3         1 7A2       0.077000
      5 C3           0.1450     1.3750    -0.1750 c          1 7A2       0.788000
      6 C4          -1.1510    -0.7490    -0.6620 c3         1 7A2       0.005300
      7 C5          -2.4210    -0.2740     0.0810 c          1 7A2       0.700000
      8 O1           3.1920    -1.3440     0.7280 o          1 7A2      -0.782000
      9 O2           0.1270    -0.4880     1.3580 oh         1 7A2      -0.634000
     10 O3           0.1080     1.7930    -1.3530 o          1 7A2      -0.763500
     11 O4           0.2080     2.0680     0.8530 o          1 7A2      -0.763500
     12 O5          -1.1360    -2.1590    -0.6190 oh         1 7A2      -0.750000
     13 O6          -2.7130     0.9290     0.0590 o          1 7A2      -0.754000
     14 O7          -3.0660    -1.1940     0.6450 o          1 7A2      -0.754000
     15 H2           1.4270    -0.3930    -1.7190 hc         1 7A2       0.006700
     16 H3           1.2600    -1.8510    -0.7500 hc         1 7A2       0.006700
     17 H           -1.2010    -0.4070    -1.7020 h1         1 7A2       0.038700
     18 H4           0.1450    -1.4500     1.4140 ho         1 7A2       0.390000
     19 H6          -1.9110    -2.3380    -0.0470 ho         1 7A2       0.450000
@<TRIPOS>BOND
     1     1     2 1   
     2     1     3 1   
     3     1     8 1   
     4     3     4 1   
     5     3    15 1   
     6     3    16 1   
     7     4     5 1   
     8     4     6 1   
     9     4     9 1   
    10     5    10 1   
    11     5    11 1   
    12     6     7 1   
    13     6    12 1   
    14     6    17 1   
    15     7    13 1   
    16     7    14 1   
    17     9    18 1   
    18    12    19 1   
@<TRIPOS>SUBSTRUCTURE
     1 7A2         1 TEMP              0 ****  ****    0 ROOT
