@<TRIPOS>MOLECULE
7A3
   19    18     1     0     0
SMALL
No Charge or Current Charge


@<TRIPOS>ATOM
      1 O2          -0.1840     1.2290    -1.1830 oh         1 7A3      -0.709000
      2 O3           0.3050    -0.6620     1.9110 o          1 7A3      -0.764500
      3 C1          -1.4220    -0.8220    -0.7280 c3         1 7A3      -0.162400
      4 O1          -3.1230    -0.2630     0.8420 o          1 7A3      -0.780500
      5 C2          -0.1320     0.0040    -0.3950 c3         1 7A3       0.070000
      6 C5           2.4630     0.1530    -0.6760 c          1 7A3       0.703000
      7 C3          -0.0400     0.2670     1.1840 c          1 7A3       0.745000
      8 C4           1.1720    -0.7660    -0.8450 c3         1 7A3       0.031300
      9 C           -2.7120    -0.0880    -0.2960 c          1 7A3       0.725000
     10 O           -3.3180     0.5840    -1.1200 o          1 7A3      -0.780500
     11 O4          -0.1720     1.4080     1.6140 o          1 7A3      -0.764500
     12 O5           1.2640    -2.0430    -0.1480 oh         1 7A3      -0.747000
     13 O6           3.4290    -0.2670    -0.0500 o          1 7A3      -0.768500
     14 O7           2.4450     1.2760    -1.1680 o          1 7A3      -0.768500
     15 H3           0.7700     1.5160    -1.2480 ho         1 7A3       0.474000
     16 H1          -1.4190    -0.9820    -1.8150 hc         1 7A3       0.001700
     17 H2          -1.3370    -1.7540    -0.1570 hc         1 7A3       0.001700
     18 H5           1.0880    -0.9690    -1.9220 h1         1 7A3      -0.004300
     19 H6           1.0270    -1.8080     0.7940 ho         1 7A3       0.499000
@<TRIPOS>BOND
     1     1     5 1   
     2     1    15 1   
     3     2     7 1   
     4     3     5 1   
     5     3     9 1   
     6     3    16 1   
     7     3    17 1   
     8     4     9 1   
     9     5     7 1   
    10     5     8 1   
    11     6     8 1   
    12     6    13 1   
    13     6    14 1   
    14     7    11 1   
    15     8    12 1   
    16     8    18 1   
    17     9    10 1   
    18    12    19 1   
@<TRIPOS>SUBSTRUCTURE
     1 7A3         1 TEMP              0 ****  ****    0 ROOT
