@<TRIPOS>MOLECULE
7A3
   19    18     1     0     0
SMALL
abcg2


@<TRIPOS>ATOM
      1 O2          -0.2470     1.2410    -1.0710 oh         1 7A3      -0.709000
      2 O3           0.2160    -0.8140     1.8290 o          1 7A3      -0.764500
      3 C1          -1.3660    -0.8040    -0.6830 c3         1 7A3      -0.162400
      4 O1          -2.8420     0.3220     0.7930 o          1 7A3      -0.780500
      5 C2          -0.1290     0.0350    -0.3610 c3         1 7A3       0.070000
      6 C5           2.4160     0.1430    -0.5980 c          1 7A3       0.703000
      7 C3           0.0340     0.2480     1.1640 c          1 7A3       0.745000
      8 C4           1.1540    -0.7190    -0.8400 c3         1 7A3       0.031300
      9 C           -2.6840    -0.0830    -0.3770 c          1 7A3       0.725000
     10 O           -3.5160     0.0170    -1.3050 o          1 7A3      -0.780500
     11 O4           0.0640     1.3940     1.6260 o          1 7A3      -0.764500
     12 O5           1.2460    -1.9950    -0.2730 oh         1 7A3      -0.747000
     13 O6           3.3880    -0.3630    -0.0250 o          1 7A3      -0.768500
     14 O7           2.3550     1.3280    -1.0330 o          1 7A3      -0.768500
     15 H3           0.6780     1.5730    -1.1310 ho         1 7A3       0.474000
     16 H1          -1.3280    -1.0890    -1.7400 hc         1 7A3       0.001700
     17 H2          -1.3380    -1.7310    -0.1060 hc         1 7A3       0.001700
     18 H5           1.0550    -0.8430    -1.9290 h1         1 7A3      -0.004300
     19 H6           0.9470    -1.8480     0.6530 ho         1 7A3       0.499000
@<TRIPOS>BOND
     1     1     5 1   
     2     1    15 1   
     3     2     7 1   
     4     3     5 1   
     5     3     9 1   
     6     3    16 1   
     7     3    17 1   
     8     4     9 1   
     9     5     7 1   
    10     5     8 1   
    11     6     8 1   
    12     6    13 1   
    13     6    14 1   
    14     7    11 1   
    15     8    12 1   
    16     8    18 1   
    17     9    10 1   
    18    12    19 1   
@<TRIPOS>SUBSTRUCTURE
     1 7A3         1 TEMP              0 ****  ****    0 ROOT
