@<TRIPOS>MOLECULE
7A4
   45    47     1     0     0
SMALL
bcc


@<TRIPOS>ATOM
      1 C11          4.5920    -0.5860     0.1580 ca         1 7A4      -0.091300
      2 C13          2.7170    -1.9170     0.9170 ca         1 7A4      -0.124500
      3 C16          6.7990    -0.4500    -1.0370 c3         1 7A4      -0.082600
      4 C15          6.1770     1.2840     0.6820 c3         1 7A4      -0.082600
      5 C14          6.0430    -0.1810     0.2640 c3         1 7A4      -0.012400
      6 C19         -1.8530     3.0140    -0.0470 ca         1 7A4       0.123900
      7 C23         -5.2420    -0.3900     0.4380 c          1 7A4       0.934600
      8 C20         -2.7350     1.9750    -0.2950 ca         1 7A4      -0.119000
      9 C02         -1.9760    -1.5720    -0.4490 cc         1 7A4      -0.166200
     10 C03         -2.8920    -0.5810    -0.5380 cd         1 7A4       0.058600
     11 C04         -2.2070     0.6960    -0.3410 ca         1 7A4      -0.003800
     12 C05         -0.8330     0.4630    -0.1520 ca         1 7A4      -0.097800
     13 C06         -0.6370    -0.9960    -0.2280 cc         1 7A4       0.041800
     14 C07          0.4720    -1.7470    -0.1080 cf         1 7A4      -0.138200
     15 C08          1.8690    -1.3170    -0.0150 ca         1 7A4      -0.023800
     16 C09          2.4180    -0.3720    -0.8860 ca         1 7A4      -0.124500
     17 C10          3.7520    -0.0140    -0.7980 ca         1 7A4      -0.128500
     18 C12          4.0500    -1.5450     1.0100 ca         1 7A4      -0.128500
     19 C17          0.0110     1.5240     0.1280 ca         1 7A4      -0.085000
     20 C18         -0.5040     2.8180     0.1780 ca         1 7A4      -0.198000
     21 O24         -6.4690    -0.3860     0.2190 o          1 7A4      -0.825300
     22 O25         -4.6720    -0.1990     1.5260 o          1 7A4      -0.825300
     23 H1           2.3250    -2.6750     1.5850 ha         1 7A4       0.135500
     24 H2           6.3970     0.1420    -1.8620 hc         1 7A4       0.031700
     25 H3           7.8530    -0.1890    -0.9280 hc         1 7A4       0.031700
     26 H4           6.7400    -1.5010    -1.3210 hc         1 7A4       0.031700
     27 H5           5.6710     1.4790     1.6280 hc         1 7A4       0.031700
     28 H6           7.2280     1.5530     0.8020 hc         1 7A4       0.031700
     29 H7           5.7500     1.9520    -0.0690 hc         1 7A4       0.031700
     30 H8           6.4980    -0.7930     1.0480 hc         1 7A4       0.043700
     31 H9          -4.6090    -1.6680    -1.1810 hc         1 7A4       0.038200
     32 H10         -4.6330     0.0240    -1.5920 hc         1 7A4       0.038200
     33 H11         -3.7890     2.1680    -0.4430 ha         1 7A4       0.171000
     34 H12         -1.6210    -3.4760    -1.3790 hc         1 7A4       0.030700
     35 H13         -1.9340    -3.5650     0.3450 hc         1 7A4       0.030700
     36 H14         -3.2580    -3.2620    -0.7710 hc         1 7A4       0.030700
     37 H15          0.3310    -2.8240    -0.0770 ha         1 7A4       0.128000
     38 H16          1.7960     0.0760    -1.6520 ha         1 7A4       0.135500
     39 H17          4.1460     0.7170    -1.4950 ha         1 7A4       0.120500
     40 H18          4.6820    -2.0140     1.7540 ha         1 7A4       0.120500
     41 H19          1.0650     1.3790     0.3130 ha         1 7A4       0.130000
     42 H20          0.1410     3.6610     0.3890 ha         1 7A4       0.131000
     43 C22         -4.3500    -0.6770    -0.7980 c3         1 7A4      -0.195200
     44 C01         -2.2110    -3.0390    -0.5710 c3         1 7A4      -0.018900
     45 F21         -2.3360     4.2690    -0.0090 f          1 7A4      -0.160900
@<TRIPOS>BOND
     1     1     5 1   
     2     1    17 ar  
     3     1    18 ar  
     4     2    15 ar  
     5     2    18 ar  
     6     2    23 1   
     7     3     5 1   
     8     3    24 1   
     9     3    25 1   
    10     3    26 1   
    11     4     5 1   
    12     4    27 1   
    13     4    28 1   
    14     4    29 1   
    15     5    30 1   
    16     6     8 ar  
    17     6    20 ar  
    18     6    45 1   
    19     7    21 1   
    20     7    22 1   
    21     7    43 1   
    22     8    11 ar  
    23     8    33 1   
    24     9    10 2   
    25     9    13 1   
    26     9    44 1   
    27    10    11 1   
    28    10    43 1   
    29    11    12 ar  
    30    12    13 1   
    31    12    19 ar  
    32    13    14 2   
    33    14    15 1   
    34    14    37 1   
    35    15    16 ar  
    36    16    17 ar  
    37    16    38 1   
    38    17    39 1   
    39    18    40 1   
    40    19    20 ar  
    41    19    41 1   
    42    20    42 1   
    43    31    43 1   
    44    32    43 1   
    45    34    44 1   
    46    35    44 1   
    47    36    44 1   
@<TRIPOS>SUBSTRUCTURE
     1 7A4         1 TEMP              0 ****  ****    0 ROOT
