@<TRIPOS>MOLECULE
7A4
   45    47     1     0     0
SMALL
No Charge or Current Charge


@<TRIPOS>ATOM
      1 C11          4.6200    -0.5550     0.1580 ca         1 7A4      -0.091300
      2 C13          2.8230    -1.8910     1.1360 ca         1 7A4      -0.106500
      3 C16          6.6310    -0.5050    -1.3950 c3         1 7A4      -0.082600
      4 C15          6.4130     1.2190     0.4800 c3         1 7A4      -0.082600
      5 C14          6.1100    -0.2280     0.0320 c3         1 7A4      -0.012400
      6 C19         -1.9420     3.1100    -0.2350 ca         1 7A4       0.159000
      7 C23         -5.3070    -0.7450    -0.0640 c          1 7A4       0.724000
      8 C20         -2.7520     2.0160    -0.5900 ca         1 7A4      -0.101000
      9 C02         -1.9670    -1.5600    -0.2380 cc         1 7A4      -0.166200
     10 C03         -2.8670    -0.5720    -0.6180 cd         1 7A4       0.058600
     11 C04         -2.2350     0.7250    -0.4000 ca         1 7A4      -0.003800
     12 C05         -0.9630     0.5190     0.1010 ca         1 7A4      -0.097800
     13 C06         -0.7440    -0.9190     0.1980 cc         1 7A4       0.041800
     14 C07          0.4340    -1.5290     0.5470 cf         1 7A4      -0.188200
     15 C08          1.8580    -1.1630     0.4150 ca         1 7A4      -0.023800
     16 C09          2.2910    -0.1540    -0.4680 ca         1 7A4      -0.106500
     17 C10          3.6570     0.1530    -0.5890 ca         1 7A4      -0.110500
     18 C12          4.1900    -1.5850     1.0170 ca         1 7A4      -0.110500
     19 C17         -0.1620     1.6030     0.5050 ca         1 7A4      -0.067000
     20 C18         -0.6600     2.9090     0.3180 ca         1 7A4      -0.180000
     21 O24         -5.7490     0.3410     0.2790 o          1 7A4      -0.720000
     22 O25         -5.5670    -1.7920     0.5100 o          1 7A4      -0.720000
     23 H1           2.5130    -2.6900     1.8050 ha         1 7A4       0.117500
     24 H2           6.1510     0.1550    -2.1270 hc         1 7A4       0.031700
     25 H3           7.7150    -0.3430    -1.4480 hc         1 7A4       0.031700
     26 H4           6.4280    -1.5430    -1.6830 hc         1 7A4       0.031700
     27 H5           6.0540     1.3870     1.5030 hc         1 7A4       0.031700
     28 H6           7.4920     1.4110     0.4640 hc         1 7A4       0.031700
     29 H7           5.9260     1.9480    -0.1780 hc         1 7A4       0.031700
     30 H8           6.6730    -0.8870     0.7050 hc         1 7A4       0.043700
     31 H9          -4.2700    -1.7460    -1.6830 hc         1 7A4       0.038200
     32 H10         -4.4350     0.0540    -1.8750 hc         1 7A4       0.038200
     33 H11         -3.7530     2.1730    -0.9820 ha         1 7A4       0.153000
     34 H12         -1.5070    -3.5000    -1.0670 hc         1 7A4       0.030700
     35 H13         -1.8710    -3.5180     0.6700 hc         1 7A4       0.030700
     36 H14         -3.1780    -3.3480    -0.4990 hc         1 7A4       0.030700
     37 H15          0.3170    -2.6020     0.6880 ha         1 7A4       0.178000
     38 H16          1.5740     0.3800    -1.0850 ha         1 7A4       0.117500
     39 H17          3.9650     0.9390    -1.2750 ha         1 7A4       0.102500
     40 H18          4.9150    -2.1530     1.5950 ha         1 7A4       0.102500
     41 H19          0.8070     1.4490     0.9710 ha         1 7A4       0.112000
     42 H20         -0.0590     3.7650     0.6130 ha         1 7A4       0.113000
     43 C22         -4.2570    -0.7740    -1.1790 c3         1 7A4      -0.195200
     44 C01         -2.1420    -3.0600    -0.2890 c3         1 7A4      -0.018900
     45 F21         -2.4080     4.3680    -0.3990 f          1 7A4      -0.196000
@<TRIPOS>BOND
     1     1     5 1   
     2     1    17 ar  
     3     1    18 ar  
     4     2    15 ar  
     5     2    18 ar  
     6     2    23 1   
     7     3     5 1   
     8     3    24 1   
     9     3    25 1   
    10     3    26 1   
    11     4     5 1   
    12     4    27 1   
    13     4    28 1   
    14     4    29 1   
    15     5    30 1   
    16     6     8 ar  
    17     6    20 ar  
    18     6    45 1   
    19     7    21 1   
    20     7    22 1   
    21     7    43 1   
    22     8    11 ar  
    23     8    33 1   
    24     9    10 2   
    25     9    13 1   
    26     9    44 1   
    27    10    11 1   
    28    10    43 1   
    29    11    12 ar  
    30    12    13 1   
    31    12    19 ar  
    32    13    14 2   
    33    14    15 1   
    34    14    37 1   
    35    15    16 ar  
    36    16    17 ar  
    37    16    38 1   
    38    17    39 1   
    39    18    40 1   
    40    19    20 ar  
    41    19    41 1   
    42    20    42 1   
    43    31    43 1   
    44    32    43 1   
    45    34    44 1   
    46    35    44 1   
    47    36    44 1   
@<TRIPOS>SUBSTRUCTURE
     1 7A4         1 TEMP              0 ****  ****    0 ROOT
