@<TRIPOS>MOLECULE
7A5
   53    55     1     0     0
SMALL
No Charge or Current Charge


@<TRIPOS>ATOM
      1 C1         -30.3390    16.6140    -6.5780 cc         1 7A5      -0.508200
      2 C2         -29.5080    15.5440    -6.5670 cd         1 7A5       0.488600
      3 N3         -28.1620    15.7170    -6.4070 nd         1 7A5      -0.779300
      4 C4         -29.8910    17.9690    -6.4470 c          1 7A5       0.591200
      5 O5         -30.6670    18.9120    -6.4440 o          1 7A5      -0.577000
      6 N6         -28.5240    18.1080    -6.3380 n          1 7A5      -0.341300
      7 C7         -27.7390    16.9620    -6.2920 cc         1 7A5       0.776800
      8 N8         -26.3680    17.1210    -6.1280 nh         1 7A5      -0.748600
      9 C9         -25.7840    18.3880    -5.6040 c6         1 7A5       0.189500
     10 C10        -26.4540    19.5510    -6.3520 c6         1 7A5      -0.109400
     11 C11        -27.9810    19.4880    -6.2180 c6         1 7A5       0.091000
     12 N12        -29.9420    14.2320    -6.7170 nh         1 7A5      -0.668400
     13 C13        -25.8460    18.4800    -4.0310 c3         1 7A5       0.270000
     14 F14        -27.1010    18.3400    -3.5420 f          1 7A5      -0.109333
     15 F15        -25.0910    17.5160    -3.4560 f          1 7A5      -0.109333
     16 F16        -25.3750    19.6670    -3.5840 f          1 7A5      -0.109333
     17 C17        -29.1820    13.0510    -6.1760 c6         1 7A5       0.188800
     18 C18        -28.9500    11.9620    -7.2610 c6         1 7A5       0.138600
     19 O19        -30.1910    11.6180    -7.9200 os         1 7A5      -0.450000
     20 C20        -30.8040    12.7560    -8.5740 c6         1 7A5       0.145600
     21 C21        -31.1370    13.8880    -7.5500 c6         1 7A5       0.199500
     22 C22        -32.3290    13.5100    -6.6290 c3         1 7A5      -0.112100
     23 C23        -25.4030    16.0250    -6.4880 c3         1 7A5       0.131800
     24 C24        -25.2900    15.7000    -8.0040 c          1 7A5       0.548100
     25 O25        -24.7730    16.4890    -8.7900 o          1 7A5      -0.509100
     26 C26        -25.8340    14.3310    -8.4870 c3         1 7A5      -0.160700
     27 C27        -26.9050    14.5050    -9.5930 c3         1 7A5      -0.082100
     28 C28        -24.6820    13.4050    -8.9410 c3         1 7A5      -0.082100
     29 H1         -31.4090    16.4990    -6.6710 ha         1 7A5       0.214000
     30 H111       -28.4330    20.1350    -6.9840 h1         1 7A5       0.082200
     31 H112       -28.2780    19.8950    -5.2400 h1         1 7A5       0.082200
     32 H9         -24.7130    18.4330    -5.8590 h1         1 7A5       0.089700
     33 H231       -24.3880    16.2740    -6.1550 h1         1 7A5       0.089200
     34 H232       -25.6680    15.1010    -5.9590 h1         1 7A5       0.089200
     35 H101       -26.0760    20.5210    -6.0030 hc         1 7A5       0.083700
     36 H102       -26.1880    19.4830    -7.4160 hc         1 7A5       0.083700
     37 H171       -28.2080    13.3360    -5.7550 h1         1 7A5       0.062700
     38 H172       -29.7500    12.6010    -5.3490 h1         1 7A5       0.062700
     39 H21        -31.4470    14.7630    -8.1400 h1         1 7A5       0.073700
     40 H181       -28.2330    12.3260    -8.0100 h1         1 7A5       0.054200
     41 H182       -28.5260    11.0600    -6.7980 h1         1 7A5       0.054200
     42 H201       -30.1140    13.1430    -9.3380 h1         1 7A5       0.057200
     43 H202       -31.7200    12.4280    -9.0850 h1         1 7A5       0.057200
     44 H221       -33.2320    13.3150    -7.2190 hc         1 7A5       0.048033
     45 H222       -32.1170    12.6110    -6.0400 hc         1 7A5       0.048033
     46 H223       -32.5600    14.3220    -5.9300 hc         1 7A5       0.048033
     47 H26        -26.3160    13.8390    -7.6340 hc         1 7A5       0.055700
     48 H271       -27.3130    13.5330    -9.8960 hc         1 7A5       0.044033
     49 H272       -27.7370    15.1230    -9.2340 hc         1 7A5       0.044033
     50 H273       -26.4790    14.9870   -10.4810 hc         1 7A5       0.044033
     51 H281       -25.0670    12.4170    -9.2240 hc         1 7A5       0.044033
     52 H282       -24.1550    13.8270    -9.8050 hc         1 7A5       0.044033
     53 H283       -23.9550    13.2650    -8.1310 hc         1 7A5       0.044033
@<TRIPOS>BOND
     1     1     2 2   
     2     1     4 1   
     3     1    29 1   
     4     2     3 1   
     5     2    12 1   
     6     3     7 2   
     7     4     5 2   
     8     4     6 1   
     9     6     7 1   
    10     6    11 1   
    11     7     8 1   
    12     8     9 1   
    13     8    23 1   
    14     9    10 1   
    15     9    13 1   
    16     9    32 1   
    17    10    11 1   
    18    10    35 1   
    19    10    36 1   
    20    11    30 1   
    21    11    31 1   
    22    12    17 1   
    23    12    21 1   
    24    13    14 1   
    25    13    15 1   
    26    13    16 1   
    27    17    18 1   
    28    17    37 1   
    29    17    38 1   
    30    18    19 1   
    31    18    40 1   
    32    18    41 1   
    33    19    20 1   
    34    20    21 1   
    35    20    42 1   
    36    20    43 1   
    37    21    22 1   
    38    21    39 1   
    39    22    44 1   
    40    22    45 1   
    41    22    46 1   
    42    23    24 1   
    43    23    33 1   
    44    23    34 1   
    45    24    25 2   
    46    24    26 1   
    47    26    27 1   
    48    26    28 1   
    49    26    47 1   
    50    27    48 1   
    51    27    49 1   
    52    27    50 1   
    53    28    51 1   
    54    28    52 1   
    55    28    53 1   
@<TRIPOS>SUBSTRUCTURE
     1 7A5         1 TEMP              0 ****  ****    0 ROOT
