@<TRIPOS>MOLECULE
7A5
   53    55     1     0     0
SMALL
abcg2


@<TRIPOS>ATOM
      1 C1         -30.5820    16.7590    -6.8390 cc         1 7A5      -0.508200
      2 C2         -29.7670    15.6340    -6.8840 cd         1 7A5       0.488600
      3 N3         -28.4360    15.7200    -6.6220 nd         1 7A5      -0.779300
      4 C4         -30.0280    18.0220    -6.5570 c          1 7A5       0.591200
      5 O5         -30.6490    19.0940    -6.4820 o          1 7A5      -0.577000
      6 N6         -28.6210    18.0470    -6.3380 n          1 7A5      -0.341300
      7 C7         -27.9070    16.8860    -6.3480 cc         1 7A5       0.776800
      8 N8         -26.5700    16.9080    -6.0480 nh         1 7A5      -0.748600
      9 C9         -25.8560    18.1350    -5.7470 c6         1 7A5       0.189500
     10 C10        -26.5340    19.3300    -6.4000 c6         1 7A5      -0.109400
     11 C11        -28.0170    19.3630    -6.1020 c6         1 7A5       0.091000
     12 N12        -30.2280    14.3890    -7.1940 nh         1 7A5      -0.668400
     13 C13        -25.6920    18.2780    -4.2290 c3         1 7A5       0.270000
     14 F14        -26.8710    18.3140    -3.5740 f          1 7A5      -0.109333
     15 F15        -24.9960    17.2430    -3.7100 f          1 7A5      -0.109333
     16 F16        -25.0200    19.4020    -3.9130 f          1 7A5      -0.109333
     17 C17        -29.4330    13.1960    -6.9080 c6         1 7A5       0.188800
     18 C18        -29.6840    12.1330    -7.9590 c6         1 7A5       0.138600
     19 O19        -31.0750    11.8430    -8.0780 os         1 7A5      -0.450000
     20 C20        -31.7910    13.0140    -8.4520 c6         1 7A5       0.145600
     21 C21        -31.6560    14.1380    -7.4230 c6         1 7A5       0.199500
     22 C22        -32.4050    13.8460    -6.1220 c3         1 7A5      -0.112100
     23 C23        -25.7830    15.7200    -6.3190 c3         1 7A5       0.131800
     24 C24        -25.4330    15.5520    -7.7910 c          1 7A5       0.548100
     25 O25        -25.7490    16.3830    -8.6150 o          1 7A5      -0.509100
     26 C26        -24.6820    14.2840    -8.1480 c3         1 7A5      -0.160700
     27 C27        -25.6990    13.2380    -8.6370 c3         1 7A5      -0.082100
     28 C28        -23.6050    14.5520    -9.1970 c3         1 7A5      -0.082100
     29 H1         -31.6470    16.7210    -6.9890 ha         1 7A5       0.214000
     30 H111       -28.5200    20.0710    -6.7540 h1         1 7A5       0.082200
     31 H112       -28.2160    19.6700    -5.0750 h1         1 7A5       0.082200
     32 H9         -24.8410    18.0490    -6.1370 h1         1 7A5       0.089700
     33 H231       -24.8470    15.7760    -5.7610 h1         1 7A5       0.089200
     34 H232       -26.2990    14.8260    -5.9740 h1         1 7A5       0.089200
     35 H101       -26.0710    20.2590    -6.0720 hc         1 7A5       0.083700
     36 H102       -26.3740    19.2380    -7.4750 hc         1 7A5       0.083700
     37 H171       -28.3840    13.4700    -6.8960 h1         1 7A5       0.062700
     38 H172       -29.6920    12.8020    -5.9180 h1         1 7A5       0.062700
     39 H21        -32.0810    15.0230    -7.8930 h1         1 7A5       0.073700
     40 H181       -29.2960    12.4670    -8.9310 h1         1 7A5       0.054200
     41 H182       -29.1880    11.2040    -7.6790 h1         1 7A5       0.054200
     42 H201       -31.4240    13.3700    -9.4230 h1         1 7A5       0.057200
     43 H202       -32.8380    12.7280    -8.5510 h1         1 7A5       0.057200
     44 H221       -33.4740    13.7510    -6.3210 hc         1 7A5       0.048033
     45 H222       -32.0590    12.9160    -5.6690 hc         1 7A5       0.048033
     46 H223       -32.2580    14.6550    -5.4060 hc         1 7A5       0.048033
     47 H26        -24.2160    13.9030    -7.2350 hc         1 7A5       0.055700
     48 H271       -25.1800    12.3090    -8.8760 hc         1 7A5       0.044033
     49 H272       -26.4510    13.0220    -7.8780 hc         1 7A5       0.044033
     50 H273       -26.2060    13.5920    -9.5360 hc         1 7A5       0.044033
     51 H281       -23.0720    13.6270    -9.4240 hc         1 7A5       0.044033
     52 H282       -24.0510    14.9260   -10.1200 hc         1 7A5       0.044033
     53 H283       -22.8810    15.2880    -8.8440 hc         1 7A5       0.044033
@<TRIPOS>BOND
     1     1     2 2   
     2     1     4 1   
     3     1    29 1   
     4     2     3 1   
     5     2    12 1   
     6     3     7 2   
     7     4     5 2   
     8     4     6 1   
     9     6     7 1   
    10     6    11 1   
    11     7     8 1   
    12     8     9 1   
    13     8    23 1   
    14     9    10 1   
    15     9    13 1   
    16     9    32 1   
    17    10    11 1   
    18    10    35 1   
    19    10    36 1   
    20    11    30 1   
    21    11    31 1   
    22    12    17 1   
    23    12    21 1   
    24    13    14 1   
    25    13    15 1   
    26    13    16 1   
    27    17    18 1   
    28    17    37 1   
    29    17    38 1   
    30    18    19 1   
    31    18    40 1   
    32    18    41 1   
    33    19    20 1   
    34    20    21 1   
    35    20    42 1   
    36    20    43 1   
    37    21    22 1   
    38    21    39 1   
    39    22    44 1   
    40    22    45 1   
    41    22    46 1   
    42    23    24 1   
    43    23    33 1   
    44    23    34 1   
    45    24    25 2   
    46    24    26 1   
    47    26    27 1   
    48    26    28 1   
    49    26    47 1   
    50    27    48 1   
    51    27    49 1   
    52    27    50 1   
    53    28    51 1   
    54    28    52 1   
    55    28    53 1   
@<TRIPOS>SUBSTRUCTURE
     1 7A5         1 TEMP              0 ****  ****    0 ROOT
