@<TRIPOS>MOLECULE
7A6
   43    45     1     0     0
SMALL
abcg2


@<TRIPOS>ATOM
      1 O3          62.7680    16.8100    32.0070 oh         1 7A6      -0.667000
      2 C3          61.5750    17.4140    31.4960 c5         1 7A6       0.118300
      3 C4          60.4800    16.3790    31.2060 c5         1 7A6       0.146500
      4 C5          59.0940    17.0300    31.2540 c3         1 7A6       0.033600
      5 S5          57.7200    15.9910    30.6660 ss         1 7A6      -0.437000
      6 CS          57.7240    14.6230    31.8790 c3         1 7A6       0.065600
      7 C2          61.9190    17.9480    30.1050 c5         1 7A6       0.152300
      8 O2          63.1610    18.6230    30.0410 oh         1 7A6      -0.646000
      9 C1          61.8390    16.6810    29.2240 c5         1 7A6       0.225700
     10 N4          60.8320    15.8200    29.8870 n7         1 7A6      -0.852400
     11 C9          61.5250    16.9440    27.7910 cc         1 7A6      -0.274000
     12 C10         60.3970    17.6480    27.2550 ca         1 7A6       0.130800
     13 C11         60.5230    17.6360    25.8530 ca         1 7A6      -0.210200
     14 N7          61.6760    16.9560    25.5400 na         1 7A6      -0.211700
     15 C8          62.2680    16.5420    26.7040 cd         1 7A6      -0.115100
     16 N3          59.3530    18.2500    27.8800 nb         1 7A6      -0.189000
     17 C12         58.4810    18.8090    27.0590 ca         1 7A6       0.143900
     18 N1          58.5140    18.8520    25.7160 nb         1 7A6      -0.266000
     19 C6          59.5370    18.2670    25.0770 ca         1 7A6       0.386900
     20 N6          59.5440    18.2830    23.7210 nv         1 7A6      -1.072900
     21 C13         58.5210    13.3930    31.4550 c3         1 7A6      -0.079400
     22 C7          58.4630    12.2910    32.5120 c3         1 7A6      -0.090100
     23 H1          62.6630    16.6700    32.9550 ho         1 7A6       0.447000
     24 H2          61.2330    18.1980    32.1740 h1         1 7A6       0.052700
     25 H3          60.5250    15.6010    31.9740 h1         1 7A6       0.066700
     26 H4          59.0590    17.9010    30.5970 h1         1 7A6       0.078700
     27 H5          58.8750    17.3520    32.2730 h1         1 7A6       0.078700
     28 H6          58.0900    15.0250    32.8250 h1         1 7A6       0.061200
     29 H7          56.6750    14.3560    32.0240 h1         1 7A6       0.061200
     30 H8          61.1540    18.6570    29.7930 h1         1 7A6       0.095700
     31 H9          63.7760    18.1200    30.5960 ho         1 7A6       0.455000
     32 H10         62.8190    16.1940    29.2730 h1         1 7A6       0.070700
     33 H11         59.9990    15.7250    29.3180 hn         1 7A6       0.442000
     34 H13         62.0290    16.7630    24.6170 hn         1 7A6       0.352000
     35 H14         63.1890    15.9820    26.6800 h4         1 7A6       0.221000
     36 H15         57.6280    19.3000    27.5170 h5         1 7A6       0.046100
     37 H16         58.8970    18.9070    23.2650 hn         1 7A6       0.484500
     38 H17         60.3920    18.0750    23.2200 hn         1 7A6       0.484500
     39 H18         58.1200    13.0210    30.5080 hc         1 7A6       0.056200
     40 H19         59.5590    13.6720    31.2650 hc         1 7A6       0.056200
     41 H20         59.0280    11.4130    32.1940 hc         1 7A6       0.032033
     42 H21         58.8850    12.6360    33.4600 hc         1 7A6       0.032033
     43 H22         57.4330    11.9790    32.6990 hc         1 7A6       0.032033
@<TRIPOS>BOND
     1     1     2 1   
     2     1    23 1   
     3     2     3 1   
     4     2     7 1   
     5     2    24 1   
     6     3     4 1   
     7     3    10 1   
     8     3    25 1   
     9     4     5 1   
    10     4    26 1   
    11     4    27 1   
    12     5     6 1   
    13     6    21 1   
    14     6    28 1   
    15     6    29 1   
    16     7     8 1   
    17     7     9 1   
    18     7    30 1   
    19     8    31 1   
    20     9    10 1   
    21     9    11 1   
    22     9    32 1   
    23    10    33 1   
    24    11    12 1   
    25    11    15 2   
    26    12    13 ar  
    27    12    16 ar  
    28    13    14 1   
    29    13    19 ar  
    30    14    15 1   
    31    14    34 1   
    32    15    35 1   
    33    16    17 ar  
    34    17    18 ar  
    35    17    36 1   
    36    18    19 ar  
    37    19    20 1   
    38    20    37 1   
    39    20    38 1   
    40    21    22 1   
    41    21    39 1   
    42    21    40 1   
    43    22    41 1   
    44    22    42 1   
    45    22    43 1   
@<TRIPOS>SUBSTRUCTURE
     1 7A6         1 TEMP              0 ****  ****    0 ROOT
