@<TRIPOS>MOLECULE
7A6
   43    45     1     0     0
SMALL
No Charge or Current Charge


@<TRIPOS>ATOM
      1 O3          62.9250    16.7630    31.9970 oh         1 7A6      -0.667000
      2 C3          61.7310    17.4180    31.5170 c5         1 7A6       0.118300
      3 C4          60.5580    16.4180    31.2080 c5         1 7A6       0.146500
      4 C5          59.1530    17.0840    31.2870 c3         1 7A6       0.033600
      5 S5          57.7690    16.0150    30.6520 ss         1 7A6      -0.437000
      6 CS          57.7150    14.6990    31.9530 c3         1 7A6       0.065600
      7 C2          61.9450    18.0290    30.1020 c5         1 7A6       0.152300
      8 O2          63.2050    18.7110    30.0310 oh         1 7A6      -0.646000
      9 C1          61.8730    16.7210    29.2400 c5         1 7A6       0.225700
     10 N4          60.8080    15.8850    29.8350 n7         1 7A6      -0.852400
     11 C9          61.5310    16.9970    27.7950 cc         1 7A6      -0.274000
     12 C10         60.3600    17.5870    27.2150 ca         1 7A6       0.130800
     13 C11         60.5380    17.6180    25.8630 ca         1 7A6      -0.210200
     14 N7          61.7690    17.0760    25.5100 na         1 7A6      -0.211700
     15 C8          62.3790    16.6910    26.7310 cd         1 7A6      -0.115100
     16 N3          59.2520    18.0330    27.8310 nb         1 7A6      -0.189000
     17 C12         58.3060    18.5290    26.9960 ca         1 7A6       0.143900
     18 N1          58.3800    18.6120    25.6410 nb         1 7A6      -0.266000
     19 C6          59.5090    18.1500    25.0720 ca         1 7A6       0.386900
     20 N6          59.5790    18.2400    23.7160 nv         1 7A6      -1.072900
     21 C13         58.3800    13.4030    31.4490 c3         1 7A6      -0.079400
     22 C7          58.3570    12.2710    32.4940 c3         1 7A6      -0.090100
     23 H1          62.6710    16.2350    32.7870 ho         1 7A6       0.447000
     24 H2          61.4130    18.1850    32.2370 h1         1 7A6       0.052700
     25 H3          60.5610    15.5940    31.9360 h1         1 7A6       0.066700
     26 H4          59.1560    18.0100    30.6980 h1         1 7A6       0.078700
     27 H5          58.9440    17.3610    32.3280 h1         1 7A6       0.078700
     28 H6          58.2170    15.0550    32.8630 h1         1 7A6       0.061200
     29 H7          56.6650    14.4940    32.2010 h1         1 7A6       0.061200
     30 H8          61.1230    18.7100    29.8410 h1         1 7A6       0.095700
     31 H9          63.7700    18.2230    30.6750 ho         1 7A6       0.455000
     32 H10         62.8340    16.1880    29.3020 h1         1 7A6       0.070700
     33 H11         59.9490    16.0330    29.2930 hn         1 7A6       0.442000
     34 H13         62.1500    16.9590    24.5750 hn         1 7A6       0.352000
     35 H14         63.3650    16.2290    26.7520 h4         1 7A6       0.221000
     36 H15         57.3930    18.9000    27.4590 h5         1 7A6       0.046100
     37 H16         58.8800    18.8060    23.2400 hn         1 7A6       0.484500
     38 H17         60.4850    18.1690    23.2630 hn         1 7A6       0.484500
     39 H18         57.8650    13.0640    30.5410 hc         1 7A6       0.056200
     40 H19         59.4190    13.6080    31.1670 hc         1 7A6       0.056200
     41 H20         58.8370    11.3710    32.0920 hc         1 7A6       0.032033
     42 H21         58.8950    12.5710    33.4010 hc         1 7A6       0.032033
     43 H22         57.3260    12.0180    32.7690 hc         1 7A6       0.032033
@<TRIPOS>BOND
     1     1     2 1   
     2     1    23 1   
     3     2     3 1   
     4     2     7 1   
     5     2    24 1   
     6     3     4 1   
     7     3    10 1   
     8     3    25 1   
     9     4     5 1   
    10     4    26 1   
    11     4    27 1   
    12     5     6 1   
    13     6    21 1   
    14     6    28 1   
    15     6    29 1   
    16     7     8 1   
    17     7     9 1   
    18     7    30 1   
    19     8    31 1   
    20     9    10 1   
    21     9    11 1   
    22     9    32 1   
    23    10    33 1   
    24    11    12 1   
    25    11    15 2   
    26    12    13 ar  
    27    12    16 ar  
    28    13    14 1   
    29    13    19 ar  
    30    14    15 1   
    31    14    34 1   
    32    15    35 1   
    33    16    17 ar  
    34    17    18 ar  
    35    17    36 1   
    36    18    19 ar  
    37    19    20 1   
    38    20    37 1   
    39    20    38 1   
    40    21    22 1   
    41    21    39 1   
    42    21    40 1   
    43    22    41 1   
    44    22    42 1   
    45    22    43 1   
@<TRIPOS>SUBSTRUCTURE
     1 7A6         1 TEMP              0 ****  ****    0 ROOT
