@<TRIPOS>MOLECULE
7A7
   41    44     1     0     0
SMALL
bcc


@<TRIPOS>ATOM
      1 C4           0.9540    -3.1200    -0.4240 ca         1 7A7       0.467600
      2 C5           0.6730    -1.7450    -0.2580 ca         1 7A7      -0.279600
      3 C6          -0.7140    -1.3900    -0.2750 ca         1 7A7       0.731200
      4 N1          -1.6460    -2.3180    -0.3180 nb         1 7A7      -0.784000
      5 N3          -0.0340    -4.0410    -0.5090 nb         1 7A7      -0.732000
      6 CAT         -3.1110     0.7840    -1.2960 ca         1 7A7       0.162900
      7 CAJ         -4.4250     1.1870    -1.2760 ca         1 7A7      -0.205000
      8 CAS         -5.1520     1.0670    -0.0900 ca         1 7A7       0.174100
      9 OAP         -6.4280     1.4740    -0.1410 os         1 7A7      -0.310900
     10 CAB         -7.2170     1.3770     1.0310 c3         1 7A7       0.123700
     11 CAF         -4.5340     0.5490     1.0480 ca         1 7A7      -0.228000
     12 CAG         -3.2000     0.1720     0.9940 ca         1 7A7      -0.041000
     13 CAU         -2.4640     0.2810    -0.1740 ca         1 7A7       0.051600
     14 NAN         -1.1040    -0.0930    -0.2290 nu         1 7A7      -0.740300
     15 C2          -1.2550    -3.5900    -0.4180 ca         1 7A7       0.700900
     16 CAH          2.2980    -3.5770    -0.4890 ca         1 7A7      -0.186300
     17 CAI          3.3430    -2.7150    -0.3590 ca         1 7A7      -0.042000
     18 CAY          3.0850    -1.3460    -0.1350 ca         1 7A7       0.068400
     19 NAM          4.0530    -0.4070     0.0650 nc         1 7A7      -0.464100
     20 CAZ          1.7710    -0.8750    -0.0800 ca         1 7A7      -0.017100
     21 SAQ          1.8040     0.8100     0.2730 ss         1 7A7      -0.065100
     22 CAW          3.5420     0.7530     0.2780 cd         1 7A7       0.268900
     23 CAR          4.3260     1.9860     0.5250 cf         1 7A7       0.614300
     24 NAC          3.8660     3.1520     0.6740 n2         1 7A7      -0.850100
     25 OAO          5.6220     1.7150     0.5690 os         1 7A7      -0.380400
     26 CAA          6.5030     2.8140     0.7750 c3         1 7A7       0.130700
     27 H1          -4.8900     1.5830    -2.1710 ha         1 7A7       0.167000
     28 H2          -7.3220     0.3420     1.3660 h1         1 7A7       0.045367
     29 H3          -6.8080     1.9750     1.8480 h1         1 7A7       0.045367
     30 H4          -8.1990     1.7640     0.7720 h1         1 7A7       0.045367
     31 H5          -5.0680     0.4430     1.9820 ha         1 7A7       0.144000
     32 H6          -2.7210    -0.2150     1.8830 ha         1 7A7       0.146000
     33 H7          -0.4690     0.6110    -0.5750 hn         1 7A7       0.450800
     34 H8          -2.0530    -4.3240    -0.4470 h5         1 7A7       0.051100
     35 H9           2.4640    -4.6350    -0.6360 ha         1 7A7       0.161000
     36 H10          4.3670    -3.0610    -0.4060 ha         1 7A7       0.159000
     37 H12          2.8560     3.2060     0.6060 hn         1 7A7       0.405400
     38 H15          7.5050     2.3950     0.7790 h1         1 7A7       0.050033
     39 H16          6.4140     3.5470    -0.0270 h1         1 7A7       0.050033
     40 H17          6.3080     3.3080     1.7260 h1         1 7A7       0.050033
     41 FAD         -2.4180     0.8900    -2.4370 f          1 7A7      -0.137900
@<TRIPOS>BOND
     1     1     2 ar  
     2     1     5 ar  
     3     1    16 ar  
     4     2     3 ar  
     5     2    20 ar  
     6     3     4 ar  
     7     3    14 1   
     8     4    15 ar  
     9     5    15 ar  
    10     6     7 ar  
    11     6    13 ar  
    12     6    41 1   
    13     7     8 ar  
    14     7    27 1   
    15     8     9 1   
    16     8    11 ar  
    17     9    10 1   
    18    10    28 1   
    19    10    29 1   
    20    10    30 1   
    21    11    12 ar  
    22    11    31 1   
    23    12    13 ar  
    24    12    32 1   
    25    13    14 1   
    26    14    33 1   
    27    15    34 1   
    28    16    17 ar  
    29    16    35 1   
    30    17    18 ar  
    31    17    36 1   
    32    18    19 1   
    33    18    20 ar  
    34    19    22 2   
    35    20    21 1   
    36    21    22 1   
    37    22    23 1   
    38    23    24 2   
    39    23    25 1   
    40    24    37 1   
    41    25    26 1   
    42    26    38 1   
    43    26    39 1   
    44    26    40 1   
@<TRIPOS>SUBSTRUCTURE
     1 7A7         1 TEMP              0 ****  ****    0 ROOT
