@<TRIPOS>MOLECULE
7A7
   41    44     1     0     0
SMALL
No Charge or Current Charge


@<TRIPOS>ATOM
      1 C4           1.0680    -3.3910    -0.1730 ca         1 7A7       0.074000
      2 C5           0.7160    -2.0110    -0.1620 ca         1 7A7      -0.149000
      3 C6          -0.6770    -1.7110    -0.2480 ca         1 7A7       0.402900
      4 N1          -1.6000    -2.6820    -0.3460 nb         1 7A7      -0.258000
      5 N3           0.1230    -4.3480    -0.2620 nb         1 7A7      -0.206000
      6 CAT         -2.7040     1.4580    -0.7510 ca         1 7A7       0.198000
      7 CAJ         -3.9570     2.0760    -0.6190 ca         1 7A7      -0.187000
      8 CAS         -4.9820     1.4500     0.1000 ca         1 7A7       0.174100
      9 OAP         -6.1930     2.1030     0.1980 os         1 7A7      -0.334100
     10 CAB         -7.3100     1.5460     0.9140 c3         1 7A7       0.146900
     11 CAF         -4.7430     0.1950     0.6980 ca         1 7A7      -0.210000
     12 CAG         -3.4860    -0.4260     0.5650 ca         1 7A7      -0.023000
     13 CAU         -2.4500     0.1870    -0.1740 ca         1 7A7       0.190000
     14 NAN         -1.1720    -0.4070    -0.3120 nu         1 7A7      -0.933900
     15 C2          -1.1580    -3.9490    -0.3420 ca         1 7A7       0.174900
     16 CAH          2.4220    -3.7670    -0.0930 ca         1 7A7      -0.103000
     17 CAI          3.4350    -2.8020     0.0030 ca         1 7A7      -0.024000
     18 CAY          3.1020    -1.4410     0.0230 ca         1 7A7       0.068400
     19 NAM          4.0700    -0.4480     0.1290 nc         1 7A7      -0.464100
     20 CAZ          1.7700    -1.0530    -0.0580 ca         1 7A7      -0.144000
     21 SAQ          1.6530     0.7080     0.0150 ss         1 7A7       0.061800
     22 CAW          3.4310     0.7390     0.1340 cd         1 7A7       0.268900
     23 CAR          4.1720     2.0350     0.2360 cf         1 7A7       0.614300
     24 NAC          3.5430     3.1760     0.2450 n2         1 7A7      -0.850100
     25 OAO          5.5360     1.9180     0.3160 os         1 7A7      -0.403600
     26 CAA          6.3600     3.0940     0.4170 c3         1 7A7       0.153900
     27 H1          -4.1300     3.0470    -1.0750 ha         1 7A7       0.149000
     28 H2          -7.6110     0.5840     0.4810 h1         1 7A7       0.045367
     29 H3          -7.0580     1.3930     1.9720 h1         1 7A7       0.045367
     30 H4          -8.1700     2.2260     0.8650 h1         1 7A7       0.045367
     31 H5          -5.5120    -0.3110     1.2730 ha         1 7A7       0.126000
     32 H6          -3.3200    -1.3790     1.0570 ha         1 7A7       0.128000
     33 H7          -0.4580     0.2500    -0.6160 hn         1 7A7       0.506000
     34 H8          -1.9110    -4.7320    -0.4170 h5         1 7A7       0.051100
     35 H9           2.6900    -4.8210    -0.1050 ha         1 7A7       0.143000
     36 H10          4.4770    -3.1080     0.0660 ha         1 7A7       0.141000
     37 H12          2.5290     3.0140     0.1830 hn         1 7A7       0.405400
     38 H15          7.4190     2.8140     0.4710 h1         1 7A7       0.050033
     39 H16          6.2250     3.7440    -0.4570 h1         1 7A7       0.050033
     40 H17          6.1140     3.6680     1.3200 h1         1 7A7       0.050033
     41 FAD         -1.7310     2.0960    -1.4450 f          1 7A7      -0.173000
@<TRIPOS>BOND
     1     1     2 ar  
     2     1     5 ar  
     3     1    16 ar  
     4     2     3 ar  
     5     2    20 ar  
     6     3     4 ar  
     7     3    14 1   
     8     4    15 ar  
     9     5    15 ar  
    10     6     7 ar  
    11     6    13 ar  
    12     6    41 1   
    13     7     8 ar  
    14     7    27 1   
    15     8     9 1   
    16     8    11 ar  
    17     9    10 1   
    18    10    28 1   
    19    10    29 1   
    20    10    30 1   
    21    11    12 ar  
    22    11    31 1   
    23    12    13 ar  
    24    12    32 1   
    25    13    14 1   
    26    14    33 1   
    27    15    34 1   
    28    16    17 ar  
    29    16    35 1   
    30    17    18 ar  
    31    17    36 1   
    32    18    19 1   
    33    18    20 ar  
    34    19    22 2   
    35    20    21 1   
    36    21    22 1   
    37    22    23 1   
    38    23    24 2   
    39    23    25 1   
    40    24    37 1   
    41    25    26 1   
    42    26    38 1   
    43    26    39 1   
    44    26    40 1   
@<TRIPOS>SUBSTRUCTURE
     1 7A7         1 TEMP              0 ****  ****    0 ROOT
