@<TRIPOS>MOLECULE
7A8
   27    27     1     0     0
SMALL
No Charge or Current Charge


@<TRIPOS>ATOM
      1 C5           1.3030    -0.2240    -0.0530 c6         1 7A8      -0.040200
      2 C6           1.2150    -0.1120    -1.5710 c2         1 7A8      -0.219200
      3 C7           0.0660     0.0490    -2.2470 c2         1 7A8      -0.120400
      4 C8          -1.2800     0.1220    -1.5370 c6         1 7A8      -0.040200
      5 C9          -1.2220    -0.3780    -0.0720 c6         1 7A8      -0.071400
      6 C10          0.0010     0.2130     0.6930 c6         1 7A8       0.184500
      7 N12          0.0280    -0.1790     2.1480 n3         1 7A8      -0.714600
      8 C13          0.0010     0.1940    -3.7550 c3         1 7A8      -0.050900
      9 C14          1.2240     0.3170     2.8760 c3         1 7A8       0.150600
     10 C15         -1.2100     0.1690     2.8930 c3         1 7A8       0.150600
     11 H51          2.1450     0.3940     0.2840 hc         1 7A8       0.052200
     12 H52          1.5510    -1.2620     0.2090 hc         1 7A8       0.052200
     13 H6           2.1680    -0.1560    -2.1030 ha         1 7A8       0.169000
     14 H81         -2.0230    -0.4750    -2.0830 hc         1 7A8       0.044700
     15 H82         -1.6400     1.1600    -1.5600 hc         1 7A8       0.044700
     16 H91         -1.1670    -1.4750    -0.0580 hc         1 7A8       0.047700
     17 H92         -2.1690    -0.1040     0.4070 hc         1 7A8       0.047700
     18 H10         -0.0700     1.3090     0.6230 h1         1 7A8       0.021700
     19 H131         0.9980     0.1550    -4.2100 hc         1 7A8       0.038367
     20 H132        -0.5980    -0.6080    -4.2040 hc         1 7A8       0.038367
     21 H133        -0.4540     1.1510    -4.0390 hc         1 7A8       0.038367
     22 H141         1.1800     0.0340     3.9360 h1         1 7A8       0.029200
     23 H142         2.1490    -0.1110     2.4710 h1         1 7A8       0.029200
     24 H143         1.2920     1.4120     2.8180 h1         1 7A8       0.029200
     25 H151        -2.0730    -0.4020     2.5310 h1         1 7A8       0.029200
     26 H152        -1.1010    -0.0670     3.9600 h1         1 7A8       0.029200
     27 H153        -1.4330     1.2410     2.8020 h1         1 7A8       0.029200
@<TRIPOS>BOND
     1     1     2 1   
     2     1     6 1   
     3     1    11 1   
     4     1    12 1   
     5     2     3 2   
     6     2    13 1   
     7     3     4 1   
     8     3     8 1   
     9     4     5 1   
    10     4    14 1   
    11     4    15 1   
    12     5     6 1   
    13     5    16 1   
    14     5    17 1   
    15     6     7 1   
    16     6    18 1   
    17     7     9 1   
    18     7    10 1   
    19     8    19 1   
    20     8    20 1   
    21     8    21 1   
    22     9    22 1   
    23     9    23 1   
    24     9    24 1   
    25    10    25 1   
    26    10    26 1   
    27    10    27 1   
@<TRIPOS>SUBSTRUCTURE
     1 7A8         1 TEMP              0 ****  ****    0 ROOT
