@<TRIPOS>MOLECULE
7A8
   27    27     1     0     0
SMALL
bcc


@<TRIPOS>ATOM
      1 C5           1.2750    -0.2070    -0.0230 c6         1 7A8      -0.040200
      2 C6           1.1820    -0.0940    -1.5160 c2         1 7A8      -0.169200
      3 C7           0.0480     0.0570    -2.1970 c2         1 7A8      -0.120400
      4 C8          -1.2750     0.0780    -1.4900 c6         1 7A8      -0.040200
      5 C9          -1.1930    -0.4400    -0.0590 c6         1 7A8      -0.071400
      6 C10         -0.0190     0.1890     0.6900 c6         1 7A8       0.184500
      7 N12          0.0050    -0.2040     2.0970 n3         1 7A8      -0.714600
      8 C13          0.0160     0.2260    -3.6850 c3         1 7A8      -0.050900
      9 C14          1.1920     0.2680     2.7850 c3         1 7A8       0.150600
     10 C15         -1.1730     0.2460     2.8140 c3         1 7A8       0.150600
     11 H51          2.1060     0.4200     0.3100 hc         1 7A8       0.052200
     12 H52          1.5460    -1.2320     0.2610 hc         1 7A8       0.052200
     13 H6           2.1240    -0.1200    -2.0580 ha         1 7A8       0.119000
     14 H81         -2.0010    -0.5170    -2.0530 hc         1 7A8       0.044700
     15 H82         -1.6720     1.1010    -1.4970 hc         1 7A8       0.044700
     16 H91         -1.0670    -1.5270    -0.0600 hc         1 7A8       0.047700
     17 H92         -2.1430    -0.2320     0.4340 hc         1 7A8       0.047700
     18 H10         -0.1200     1.2900     0.6090 h1         1 7A8       0.021700
     19 H131         1.0150     0.2170    -4.1190 hc         1 7A8       0.038367
     20 H132        -0.5690    -0.5670    -4.1590 hc         1 7A8       0.038367
     21 H133        -0.4620     1.1700    -3.9610 hc         1 7A8       0.038367
     22 H141         1.1260     0.0060     3.8410 h1         1 7A8       0.029200
     23 H142         2.0950    -0.2020     2.3970 h1         1 7A8       0.029200
     24 H143         1.3260     1.3600     2.7240 h1         1 7A8       0.029200
     25 H151        -2.0780    -0.2350     2.4470 h1         1 7A8       0.029200
     26 H152        -1.0790    -0.0170     3.8680 h1         1 7A8       0.029200
     27 H153        -1.3240     1.3360     2.7570 h1         1 7A8       0.029200
@<TRIPOS>BOND
     1     1     2 1   
     2     1     6 1   
     3     1    11 1   
     4     1    12 1   
     5     2     3 2   
     6     2    13 1   
     7     3     4 1   
     8     3     8 1   
     9     4     5 1   
    10     4    14 1   
    11     4    15 1   
    12     5     6 1   
    13     5    16 1   
    14     5    17 1   
    15     6     7 1   
    16     6    18 1   
    17     7     9 1   
    18     7    10 1   
    19     8    19 1   
    20     8    20 1   
    21     8    21 1   
    22     9    22 1   
    23     9    23 1   
    24     9    24 1   
    25    10    25 1   
    26    10    26 1   
    27    10    27 1   
@<TRIPOS>SUBSTRUCTURE
     1 7A8         1 TEMP              0 ****  ****    0 ROOT
