@<TRIPOS>MOLECULE
7A9
   46    50     1     0     0
SMALL
abcg2


@<TRIPOS>ATOM
      1 C22          4.7630    -0.3950    -0.2610 c6         1 7A9       0.144800
      2 C13         -2.3530    -2.3610    -0.2610 ca         1 7A9      -0.054000
      3 C21          4.1560     0.7570    -1.1010 c6         1 7A9      -0.108900
      4 C14         -4.3810     1.4040     0.2610 c6         1 7A9      -0.029100
      5 C11         -4.3590    -1.1100     0.1510 ca         1 7A9      -0.090000
      6 C16          2.6550    -1.1310     0.5630 c6         1 7A9       0.130800
      7 C20          2.7820     1.0980    -0.5100 c6         1 7A9      -0.076700
      8 C19          3.0260     1.6470     0.9020 c6         1 7A9      -0.108900
      9 C06         -0.1770    -1.2280    -0.6230 c          1 7A9       0.570600
     10 N05          0.5430    -0.1140    -0.3650 n          1 7A9      -0.400800
     11 C15          1.9980    -0.2220    -0.5110 c6         1 7A9       0.087700
     12 C18          3.8370     0.5960     1.6930 c6         1 7A9       0.144800
     13 N17          3.9740    -0.6430     0.9400 n3         1 7A9      -0.676600
     14 C04         -0.0940     1.0560     0.2220 c6         1 7A9       0.113000
     15 C08         -1.6440    -1.1690    -0.3580 ca         1 7A9      -0.145600
     16 C12         -3.7140    -2.3280    -0.0040 ca         1 7A9      -0.122000
     17 C10         -3.6650     0.0940     0.0490 ca         1 7A9      -0.080300
     18 C01         -3.5900     2.6020    -0.2460 c6         1 7A9      -0.072400
     19 C09         -2.2970     0.0560    -0.2140 ca         1 7A9      -0.043300
     20 C03         -1.4680     1.2980    -0.3750 c6         1 7A9      -0.040400
     21 C02         -2.1430     2.5240     0.2220 c6         1 7A9      -0.067400
     22 H1           4.7980    -1.3200    -0.8410 h1         1 7A9       0.055200
     23 H2           5.7890    -0.1650     0.0330 h1         1 7A9       0.055200
     24 H4           4.7920     1.6450    -1.0690 hc         1 7A9       0.046200
     25 H5           4.0630     0.4670    -2.1500 hc         1 7A9       0.046200
     26 H6          -5.3660     1.3650    -0.2100 hc         1 7A9       0.049700
     27 H7          -4.5650     1.5270     1.3330 hc         1 7A9       0.049700
     28 H8          -5.4230    -1.0910     0.3550 ha         1 7A9       0.112000
     29 H9           2.0290    -1.1630     1.4600 h1         1 7A9       0.068700
     30 H10          2.7430    -2.1530     0.1920 h1         1 7A9       0.068700
     31 H11          2.2890     1.8440    -1.1390 hc         1 7A9       0.060700
     32 H12          3.5750     2.5880     0.8240 hc         1 7A9       0.046200
     33 H13          2.0950     1.8840     1.4180 hc         1 7A9       0.046200
     34 H14          2.1600    -0.6740    -1.4930 h1         1 7A9       0.075700
     35 H15          4.8390     0.9650     1.9260 h1         1 7A9       0.055200
     36 H16          3.3570     0.3710     2.6480 h1         1 7A9       0.055200
     37 H18         -0.1720     0.9530     1.3110 h1         1 7A9       0.047200
     38 H19          0.5200     1.9290     0.0210 h1         1 7A9       0.047200
     39 H20         -4.2740    -3.2500     0.0790 ha         1 7A9       0.118000
     40 H21         -3.6180     2.6340    -1.3390 hc         1 7A9       0.045200
     41 H22         -4.0560     3.5250     0.1050 hc         1 7A9       0.045200
     42 H23         -1.3330     1.4770    -1.4510 hc         1 7A9       0.070700
     43 H24         -1.5950     3.4220    -0.0700 hc         1 7A9       0.044700
     44 H25         -2.1110     2.4730     1.3160 hc         1 7A9       0.044700
     45 H3          -1.8420    -3.3070    -0.3810 ha         1 7A9       0.138000
     46 O07          0.3380    -2.2600    -1.0440 o          1 7A9      -0.569000
@<TRIPOS>BOND
     1     1     3 1   
     2     1    13 1   
     3     1    22 1   
     4     1    23 1   
     5     2    15 ar  
     6     2    16 ar  
     7     2    45 1   
     8     3     7 1   
     9     3    24 1   
    10     3    25 1   
    11     4    17 1   
    12     4    18 1   
    13     4    26 1   
    14     4    27 1   
    15     5    16 ar  
    16     5    17 ar  
    17     5    28 1   
    18     6    11 1   
    19     6    13 1   
    20     6    29 1   
    21     6    30 1   
    22     7     8 1   
    23     7    11 1   
    24     7    31 1   
    25     8    12 1   
    26     8    32 1   
    27     8    33 1   
    28     9    10 1   
    29     9    15 1   
    30     9    46 2   
    31    10    11 1   
    32    10    14 1   
    33    11    34 1   
    34    12    13 1   
    35    12    35 1   
    36    12    36 1   
    37    14    20 1   
    38    14    37 1   
    39    14    38 1   
    40    15    19 ar  
    41    16    39 1   
    42    17    19 ar  
    43    18    21 1   
    44    18    40 1   
    45    18    41 1   
    46    19    20 1   
    47    20    21 1   
    48    20    42 1   
    49    21    43 1   
    50    21    44 1   
@<TRIPOS>SUBSTRUCTURE
     1 7A9         1 TEMP              0 ****  ****    0 ROOT
