@<TRIPOS>MOLECULE
7A9
   46    50     1     0     0
SMALL
No Charge or Current Charge


@<TRIPOS>ATOM
      1 C22          4.9260    -0.3450    -0.2030 c6         1 7A9       0.144800
      2 C13         -2.5060    -2.4260    -0.3240 ca         1 7A9      -0.054000
      3 C21          4.2650     0.7180    -1.1420 c6         1 7A9      -0.108900
      4 C14         -4.4510     1.4190     0.2800 c6         1 7A9      -0.029100
      5 C11         -4.5030    -1.1070     0.1040 ca         1 7A9      -0.090000
      6 C16          2.7410    -1.1490     0.5760 c6         1 7A9       0.130800
      7 C20          2.8550     1.0960    -0.5980 c6         1 7A9      -0.076700
      8 C19          3.0960     1.7100     0.8230 c6         1 7A9      -0.108900
      9 C06         -0.2320    -1.3450    -0.5930 c          1 7A9       0.570600
     10 N05          0.5530    -0.1960    -0.3380 n          1 7A9      -0.400800
     11 C15          2.0470    -0.2510    -0.5130 c6         1 7A9       0.087700
     12 C18          3.8500     0.6900     1.7290 c6         1 7A9       0.144800
     13 N17          4.0700    -0.5940     1.0000 n3         1 7A9      -0.676600
     14 C04         -0.0660     1.0490     0.1920 c6         1 7A9       0.113000
     15 C08         -1.7240    -1.2520    -0.3640 ca         1 7A9      -0.145600
     16 C12         -3.8880    -2.3530    -0.0890 ca         1 7A9      -0.122000
     17 C10         -3.7440     0.0760     0.0480 ca         1 7A9      -0.080300
     18 C01         -3.6160     2.6460    -0.1490 c6         1 7A9      -0.072400
     19 C09         -2.3490     0.0010    -0.1870 ca         1 7A9      -0.043300
     20 C03         -1.5000     1.2650    -0.3300 c6         1 7A9      -0.040400
     21 C02         -2.1570     2.5040     0.3260 c6         1 7A9      -0.067400
     22 H1           5.0770    -1.2800    -0.7630 h1         1 7A9       0.055200
     23 H2           5.9240     0.0080     0.0980 h1         1 7A9       0.055200
     24 H4           4.9010     1.6120    -1.2020 hc         1 7A9       0.046200
     25 H5           4.1930     0.3230    -2.1650 hc         1 7A9       0.046200
     26 H6          -5.4140     1.4330    -0.2490 hc         1 7A9       0.049700
     27 H7          -4.6910     1.5060     1.3480 hc         1 7A9       0.049700
     28 H8          -5.5730    -1.0600     0.2930 ha         1 7A9       0.112000
     29 H9           2.0770    -1.2350     1.4480 h1         1 7A9       0.068700
     30 H10          2.8570    -2.1660     0.1730 h1         1 7A9       0.068700
     31 H11          2.3740     1.8130    -1.2770 hc         1 7A9       0.060700
     32 H12          3.6900     2.6300     0.7360 hc         1 7A9       0.046200
     33 H13          2.1620     2.0080     1.3120 hc         1 7A9       0.046200
     34 H14          2.2110    -0.7500    -1.4800 h1         1 7A9       0.075700
     35 H15          4.8110     1.1220     2.0440 h1         1 7A9       0.055200
     36 H16          3.2650     0.5170     2.6450 h1         1 7A9       0.055200
     37 H18         -0.0780     0.9930     1.2900 h1         1 7A9       0.047200
     38 H19          0.5100     1.9360    -0.0960 h1         1 7A9       0.047200
     39 H20         -4.4810    -3.2630    -0.0500 ha         1 7A9       0.118000
     40 H21         -3.6410     2.7470    -1.2430 hc         1 7A9       0.045200
     41 H22         -4.0620     3.5630     0.2600 hc         1 7A9       0.045200
     42 H23         -1.4200     1.4680    -1.4070 hc         1 7A9       0.070700
     43 H24         -1.5910     3.4100     0.0690 hc         1 7A9       0.044700
     44 H25         -2.1300     2.4140     1.4210 hc         1 7A9       0.044700
     45 H3          -2.0420    -3.4010    -0.4620 ha         1 7A9       0.138000
     46 O07          0.2820    -2.3860    -0.9850 o          1 7A9      -0.569000
@<TRIPOS>BOND
     1     1     3 1   
     2     1    13 1   
     3     1    22 1   
     4     1    23 1   
     5     2    15 ar  
     6     2    16 ar  
     7     2    45 1   
     8     3     7 1   
     9     3    24 1   
    10     3    25 1   
    11     4    17 1   
    12     4    18 1   
    13     4    26 1   
    14     4    27 1   
    15     5    16 ar  
    16     5    17 ar  
    17     5    28 1   
    18     6    11 1   
    19     6    13 1   
    20     6    29 1   
    21     6    30 1   
    22     7     8 1   
    23     7    11 1   
    24     7    31 1   
    25     8    12 1   
    26     8    32 1   
    27     8    33 1   
    28     9    10 1   
    29     9    15 1   
    30     9    46 2   
    31    10    11 1   
    32    10    14 1   
    33    11    34 1   
    34    12    13 1   
    35    12    35 1   
    36    12    36 1   
    37    14    20 1   
    38    14    37 1   
    39    14    38 1   
    40    15    19 ar  
    41    16    39 1   
    42    17    19 ar  
    43    18    21 1   
    44    18    40 1   
    45    18    41 1   
    46    19    20 1   
    47    20    21 1   
    48    20    42 1   
    49    21    43 1   
    50    21    44 1   
@<TRIPOS>SUBSTRUCTURE
     1 7A9         1 TEMP              0 ****  ****    0 ROOT
