@<TRIPOS>MOLECULE
7AA
   37    40     1     0     0
SMALL
No Charge or Current Charge


@<TRIPOS>ATOM
      1 C4           1.2810    -3.4300    -0.2070 ca         1 7AA       0.071000
      2 C5           0.8780    -2.0650    -0.1500 ca         1 7AA      -0.141000
      3 C6          -0.5260    -1.8150    -0.1920 ca         1 7AA       0.395900
      4 N1          -1.4150    -2.8170    -0.2910 nb         1 7AA      -0.252000
      5 N3           0.3700    -4.4200    -0.2950 nb         1 7AA      -0.195000
      6 CAS         -2.6710     1.2740    -0.5870 ca         1 7AA       0.081000
      7 CAJ         -3.9440     1.8410    -0.4060 ca         1 7AA      -0.077000
      8 CAR         -4.9150     1.1610     0.3430 ca         1 7AA       0.110000
      9 Cl2         -6.5070     1.8730     0.5720 cl         1 7AA      -0.187000
     10 CAF         -4.6130    -0.0820     0.9200 ca         1 7AA      -0.082000
     11 CAG         -3.3390    -0.6530     0.7400 ca         1 7AA      -0.087000
     12 CAT         -2.3580     0.0090    -0.0280 ca         1 7AA       0.301000
     13 NAN         -1.0700    -0.5310    -0.2130 nu         1 7AA      -0.937900
     14 C2          -0.9270    -4.0670    -0.3300 ca         1 7AA       0.170900
     15 CAH          2.6500    -3.7570    -0.1740 ca         1 7AA      -0.102000
     16 CAI          3.6290    -2.7560    -0.0800 ca         1 7AA      -0.023000
     17 CAX          3.2450    -1.4100    -0.0130 ca         1 7AA       0.074400
     18 NAM          4.1790    -0.3840     0.0940 nc         1 7AA      -0.465100
     19 CAY          1.8990    -1.0710    -0.0480 ca         1 7AA      -0.151000
     20 SAP          1.7180     0.6810     0.0790 ss         1 7AA       0.071800
     21 CAV          3.4960     0.7770     0.1480 cd         1 7AA       0.270900
     22 CAQ          4.1900     2.0980     0.2630 cf         1 7AA       0.613300
     23 NAB          3.5200     3.2150     0.3170 n2         1 7AA      -0.848100
     24 OAO          5.5580     2.0310     0.3060 os         1 7AA      -0.403600
     25 CAA          6.3400     3.2350     0.4160 c3         1 7AA       0.153900
     26 H1          -4.1760     2.8080    -0.8440 ha         1 7AA       0.146000
     27 H2          -5.3630    -0.6010     1.5130 ha         1 7AA       0.137000
     28 H3          -3.1180    -1.6020     1.2170 ha         1 7AA       0.138000
     29 H4          -0.4000     0.1600    -0.5400 hn         1 7AA       0.509000
     30 H5          -1.6520    -4.8750    -0.4050 h5         1 7AA       0.054100
     31 H6           2.9570    -4.7990    -0.2200 ha         1 7AA       0.145000
     32 H7           4.6820    -3.0230    -0.0530 ha         1 7AA       0.143000
     33 H9           2.5110     3.0170     0.2700 hn         1 7AA       0.406400
     34 H12          7.4100     2.9940     0.4370 h1         1 7AA       0.050367
     35 H13          6.1580     3.9000    -0.4380 h1         1 7AA       0.050367
     36 H14          6.0960     3.7780     1.3390 h1         1 7AA       0.050367
     37 Cl1         -1.4690     2.1690    -1.5270 cl         1 7AA      -0.193000
@<TRIPOS>BOND
     1     1     2 ar  
     2     1     5 ar  
     3     1    15 ar  
     4     2     3 ar  
     5     2    19 ar  
     6     3     4 ar  
     7     3    13 1   
     8     4    14 ar  
     9     5    14 ar  
    10     6     7 ar  
    11     6    12 ar  
    12     6    37 1   
    13     7     8 ar  
    14     7    26 1   
    15     8     9 1   
    16     8    10 ar  
    17    10    11 ar  
    18    10    27 1   
    19    11    12 ar  
    20    11    28 1   
    21    12    13 1   
    22    13    29 1   
    23    14    30 1   
    24    15    16 ar  
    25    15    31 1   
    26    16    17 ar  
    27    16    32 1   
    28    17    18 1   
    29    17    19 ar  
    30    18    21 2   
    31    19    20 1   
    32    20    21 1   
    33    21    22 1   
    34    22    23 2   
    35    22    24 1   
    36    23    33 1   
    37    24    25 1   
    38    25    34 1   
    39    25    35 1   
    40    25    36 1   
@<TRIPOS>SUBSTRUCTURE
     1 7AA         1 TEMP              0 ****  ****    0 ROOT
