@<TRIPOS>MOLECULE
7AA
   37    40     1     0     0
SMALL
abcg2


@<TRIPOS>ATOM
      1 C4           1.2070    -3.2470    -0.3150 ca         1 7AA       0.071000
      2 C5           0.8500    -1.8850    -0.1940 ca         1 7AA      -0.141000
      3 C6          -0.5520    -1.6140    -0.1930 ca         1 7AA       0.395900
      4 N1          -1.4310    -2.5890    -0.1750 nb         1 7AA      -0.252000
      5 N3           0.2720    -4.2240    -0.3370 nb         1 7AA      -0.195000
      6 CAS         -2.9150     0.9790    -0.9210 ca         1 7AA       0.081000
      7 CAJ         -4.2190     1.4170    -0.7500 ca         1 7AA      -0.077000
      8 CAR         -4.9610     0.9020     0.2970 ca         1 7AA       0.110000
      9 CL2         -6.5940     1.4270     0.5140 cl         1 7AA      -0.187000
     10 CAF         -4.4130    -0.0210     1.1750 ca         1 7AA      -0.082000
     11 CAG         -3.1050    -0.4300     1.0000 ca         1 7AA      -0.087000
     12 CAT         -2.3340     0.0530    -0.0560 ca         1 7AA       0.301000
     13 NAN         -0.9980    -0.3260    -0.2140 nu         1 7AA      -0.937900
     14 C2          -0.9710    -3.8430    -0.2310 ca         1 7AA       0.170900
     15 CAH          2.5750    -3.6260    -0.3950 ca         1 7AA      -0.102000
     16 CAI          3.5670    -2.6980    -0.3160 ca         1 7AA      -0.023000
     17 CAX          3.2330    -1.3390    -0.1320 ca         1 7AA       0.074400
     18 NAM          4.1460    -0.3380     0.0220 nc         1 7AA      -0.465100
     19 CAY          1.8960    -0.9450    -0.0680 ca         1 7AA      -0.151000
     20 SAP          1.8310     0.7510     0.2310 ss         1 7AA       0.071800
     21 CAV          3.5700     0.7950     0.2090 cd         1 7AA       0.270900
     22 CAQ          4.2820     2.0790     0.4130 cf         1 7AA       0.613300
     23 NAB          3.7560     3.2190     0.5400 n2         1 7AA      -0.848100
     24 OAO          5.5910     1.8840     0.4460 os         1 7AA      -0.403600
     25 CAA          6.4100     3.0350     0.6290 c3         1 7AA       0.153900
     26 H1          -4.6440     2.1400    -1.4310 ha         1 7AA       0.146000
     27 H2          -4.9920    -0.4110     2.0000 ha         1 7AA       0.137000
     28 H3          -2.6710    -1.1290     1.7000 ha         1 7AA       0.138000
     29 H4          -0.4180     0.3450    -0.6970 hn         1 7AA       0.509000
     30 H5          -1.7260    -4.6200    -0.2060 h5         1 7AA       0.054100
     31 H6           2.8010    -4.6770    -0.5110 ha         1 7AA       0.145000
     32 H7           4.6090    -2.9840    -0.3740 ha         1 7AA       0.143000
     33 H9           2.7440     3.2140     0.4860 hn         1 7AA       0.406400
     34 H12          7.4340     2.6730     0.6340 h1         1 7AA       0.050367
     35 H13          6.2770     3.7500    -0.1830 h1         1 7AA       0.050367
     36 H14          6.1910     3.5310     1.5740 h1         1 7AA       0.050367
     37 CL1         -1.9940     1.6160    -2.2390 cl         1 7AA      -0.193000
@<TRIPOS>BOND
     1     1     2 ar  
     2     1     5 ar  
     3     1    15 ar  
     4     2     3 ar  
     5     2    19 ar  
     6     3     4 ar  
     7     3    13 1   
     8     4    14 ar  
     9     5    14 ar  
    10     6     7 ar  
    11     6    12 ar  
    12     6    37 1   
    13     7     8 ar  
    14     7    26 1   
    15     8     9 1   
    16     8    10 ar  
    17    10    11 ar  
    18    10    27 1   
    19    11    12 ar  
    20    11    28 1   
    21    12    13 1   
    22    13    29 1   
    23    14    30 1   
    24    15    16 ar  
    25    15    31 1   
    26    16    17 ar  
    27    16    32 1   
    28    17    18 1   
    29    17    19 ar  
    30    18    21 2   
    31    19    20 1   
    32    20    21 1   
    33    21    22 1   
    34    22    23 2   
    35    22    24 1   
    36    23    33 1   
    37    24    25 1   
    38    25    34 1   
    39    25    35 1   
    40    25    36 1   
@<TRIPOS>SUBSTRUCTURE
     1 7AA         1 TEMP              0 ****  ****    0 ROOT
