@<TRIPOS>MOLECULE
7AB
   50    51     1     0     0
SMALL
bcc


@<TRIPOS>ATOM
      1 C           -2.1760    -0.4480    -0.2170 c6         1 7AB      -0.033200
      2 C1           4.1050     0.2420     0.8860 c6         1 7AB      -0.000800
      3 C2           5.0350    -0.9550     1.1120 c6         1 7AB      -0.068400
      4 C3           5.5180    -1.5700    -0.1870 c6         1 7AB      -0.071400
      5 C4           4.3270    -2.0800    -0.9790 c6         1 7AB      -0.042200
      6 C5           3.1640    -1.1230    -1.0250 c2         1 7AB      -0.092400
      7 C6           3.0470    -0.0880    -0.1710 ce         1 7AB      -0.086200
      8 C7           1.9190     0.8510    -0.1980 ce         1 7AB      -0.095000
      9 C8           0.6180     0.5110    -0.2110 cf         1 7AB      -0.150000
     10 C9          -0.4930     1.4500    -0.2380 cf         1 7AB      -0.038200
     11 C10         -1.7840     1.0090    -0.2480 ce         1 7AB      -0.094200
     12 C11         -2.9100     1.9050    -0.3820 ce         1 7AB      -0.086000
     13 C12         -4.1990     1.5090    -0.2980 cf         1 7AB      -0.158000
     14 C13         -4.5850     0.1740     0.0920 cf         1 7AB       0.005800
     15 C14         -5.8940    -0.1820     0.0670 ce         1 7AB      -0.284200
     16 C15         -6.4030    -1.4790     0.4540 c          1 7AB       0.571100
     17 C17          3.4320     0.5630     2.2260 c3         1 7AB      -0.081100
     18 C18          2.1860    -1.4540    -2.1160 c3         1 7AB      -0.058900
     19 C19         -0.1220     2.9060    -0.2640 c3         1 7AB      -0.060900
     20 C20         -3.4570    -0.6860     0.5800 c6         1 7AB      -0.053200
     21 H1          -2.3290    -0.7960    -1.2450 hc         1 7AB       0.053200
     22 H2           5.8770    -0.6360     1.7330 hc         1 7AB       0.042200
     23 H3           4.4990    -1.7180     1.6860 hc         1 7AB       0.042200
     24 H4           6.0700    -0.8340    -0.7770 hc         1 7AB       0.042700
     25 H5           6.2140    -2.3880     0.0110 hc         1 7AB       0.042700
     26 H6           4.6300    -2.3220    -2.0020 hc         1 7AB       0.045700
     27 H8           2.1850     1.9030    -0.1440 ha         1 7AB       0.123000
     28 H9           0.3850    -0.5450    -0.2020 ha         1 7AB       0.126000
     29 H11         -2.7340     2.9470    -0.6110 ha         1 7AB       0.128000
     30 H12         -4.9860     2.2260    -0.5010 ha         1 7AB       0.134000
     31 H13         -6.6290     0.5470    -0.2630 ha         1 7AB       0.145000
     32 H15         -5.6560    -2.2260     0.7680 h4         1 7AB      -0.020800
     33 O1          -7.5850    -1.7720     0.4430 o          1 7AB      -0.527100
     34 H18          4.2980     2.3550     0.3360 hc         1 7AB       0.034367
     35 H19          5.6840     1.6970     1.1910 hc         1 7AB       0.034367
     36 H20          5.4230     1.3000    -0.5090 hc         1 7AB       0.034367
     37 H21          2.8040    -0.2650     2.5610 hc         1 7AB       0.034367
     38 H22          4.1930     0.7330     2.9920 hc         1 7AB       0.034367
     39 H23          2.8100     1.4570     2.1780 hc         1 7AB       0.034367
     40 H24          2.7190    -1.6110    -3.0560 hc         1 7AB       0.042367
     41 H25          1.6660    -2.3910    -1.8990 hc         1 7AB       0.042367
     42 H26          1.4330    -0.6880    -2.2800 hc         1 7AB       0.042367
     43 H27          0.4870     3.1370    -1.1400 hc         1 7AB       0.044700
     44 H28         -0.9730     3.5790    -0.2690 hc         1 7AB       0.044700
     45 H29          0.4780     3.1620     0.6130 hc         1 7AB       0.044700
     46 H30         -3.6990    -1.7460     0.5540 hc         1 7AB       0.057700
     47 H16         -1.3990    -1.0760     0.2100 hc         1 7AB       0.053200
     48 H17          3.9740    -3.0270    -0.5520 hc         1 7AB       0.045700
     49 H7          -3.2790    -0.4310     1.6300 hc         1 7AB       0.057700
     50 C16          4.9210     1.4660     0.4440 c3         1 7AB      -0.081100
@<TRIPOS>BOND
     1     1    11 1   
     2     1    20 1   
     3     1    21 1   
     4     1    47 1   
     5     2     3 1   
     6     2     7 1   
     7     2    17 1   
     8     2    50 1   
     9     3     4 1   
    10     3    22 1   
    11     3    23 1   
    12     4     5 1   
    13     4    24 1   
    14     4    25 1   
    15     5     6 1   
    16     5    26 1   
    17     5    48 1   
    18     6     7 2   
    19     6    18 1   
    20     7     8 1   
    21     8     9 2   
    22     8    27 1   
    23     9    10 1   
    24     9    28 1   
    25    10    11 2   
    26    10    19 1   
    27    11    12 1   
    28    12    13 2   
    29    12    29 1   
    30    13    14 1   
    31    13    30 1   
    32    14    15 2   
    33    14    20 1   
    34    15    16 1   
    35    15    31 1   
    36    16    32 1   
    37    16    33 2   
    38    17    37 1   
    39    17    38 1   
    40    17    39 1   
    41    18    40 1   
    42    18    41 1   
    43    18    42 1   
    44    19    43 1   
    45    19    44 1   
    46    19    45 1   
    47    20    46 1   
    48    20    49 1   
    49    34    50 1   
    50    35    50 1   
    51    36    50 1   
@<TRIPOS>SUBSTRUCTURE
     1 7AB         1 TEMP              0 ****  ****    0 ROOT
