@<TRIPOS>MOLECULE
7AB
   50    51     1     0     0
SMALL
No Charge or Current Charge


@<TRIPOS>ATOM
      1 C           -2.2120    -0.3250    -0.6630 c6         1 7AB      -0.033200
      2 C1           4.3520     0.4750     0.6430 c6         1 7AB      -0.000800
      3 C2           5.3300    -0.6840     0.9940 c6         1 7AB      -0.068400
      4 C3           5.5240    -1.6500    -0.1890 c6         1 7AB      -0.071400
      5 C4           4.1890    -2.3280    -0.5560 c6         1 7AB      -0.042200
      6 C5           2.9890    -1.3760    -0.6130 c2         1 7AB      -0.092400
      7 C6           3.0270    -0.1340    -0.0090 ce         1 7AB      -0.086200
      8 C7           1.8870     0.8030    -0.0100 ce         1 7AB      -0.145000
      9 C8           0.5870     0.4780     0.2390 cf         1 7AB      -0.200000
     10 C9          -0.5470     1.4080     0.2690 cf         1 7AB      -0.038200
     11 C10         -1.8260     1.0580    -0.0970 ce         1 7AB      -0.094200
     12 C11         -2.9750     1.9830    -0.0820 ce         1 7AB      -0.136000
     13 C12         -4.2710     1.5790    -0.1650 cf         1 7AB      -0.208000
     14 C13         -4.6930     0.1860    -0.2230 cf         1 7AB       0.005800
     15 C14         -6.0030    -0.1600    -0.3850 ce         1 7AB      -0.334200
     16 C15         -6.5710    -1.5350    -0.4360 c          1 7AB       0.571100
     17 C17          4.0750     1.2750     1.9850 c3         1 7AB      -0.081100
     18 C18          1.7970    -2.0230    -1.3650 c3         1 7AB      -0.058900
     19 C19         -0.2310     2.8000     0.8100 c3         1 7AB      -0.060900
     20 C20         -3.5550    -0.8490    -0.0950 c6         1 7AB      -0.053200
     21 H1          -2.2980    -0.2390    -1.7550 hc         1 7AB       0.053200
     22 H2           6.3030    -0.2830     1.3070 hc         1 7AB       0.042200
     23 H3           4.9430    -1.2500     1.8530 hc         1 7AB       0.042200
     24 H4           5.9270    -1.1180    -1.0610 hc         1 7AB       0.042700
     25 H5           6.2660    -2.4160     0.0710 hc         1 7AB       0.042700
     26 H6           4.3160    -2.8420    -1.5180 hc         1 7AB       0.045700
     27 H8           2.1330     1.8490    -0.1980 ha         1 7AB       0.173000
     28 H9           0.3740    -0.5660     0.4630 ha         1 7AB       0.176000
     29 H11         -2.7730     3.0530    -0.0160 ha         1 7AB       0.178000
     30 H12         -5.0530     2.3420    -0.1670 ha         1 7AB       0.184000
     31 H13         -6.7440     0.6300    -0.4800 ha         1 7AB       0.195000
     32 H15         -5.8630    -2.3820    -0.3130 h4         1 7AB      -0.020800
     33 O1          -7.7670    -1.7430    -0.5970 o          1 7AB      -0.527100
     34 H18          4.4600     2.3970    -0.4910 hc         1 7AB       0.034367
     35 H19          6.0350     1.8400     0.0840 hc         1 7AB       0.034367
     36 H20          5.2670     1.0650    -1.3110 hc         1 7AB       0.034367
     37 H21          3.5430     0.6500     2.7120 hc         1 7AB       0.034367
     38 H22          5.0090     1.6070     2.4550 hc         1 7AB       0.034367
     39 H23          3.4630     2.1680     1.8110 hc         1 7AB       0.034367
     40 H24          2.1310    -2.5940    -2.2400 hc         1 7AB       0.042367
     41 H25          1.2450    -2.7080    -0.7120 hc         1 7AB       0.042367
     42 H26          1.0950    -1.2700    -1.7390 hc         1 7AB       0.042367
     43 H27         -0.1190     3.5240    -0.0060 hc         1 7AB       0.044700
     44 H28         -1.0190     3.1640     1.4790 hc         1 7AB       0.044700
     45 H29          0.6940     2.8160     1.3990 hc         1 7AB       0.044700
     46 H30         -3.8070    -1.7780    -0.6220 hc         1 7AB       0.057700
     47 H16         -1.4430    -1.0850    -0.4900 hc         1 7AB       0.053200
     48 H17          3.9720    -3.1150     0.1800 hc         1 7AB       0.045700
     49 H7          -3.4290    -1.1110     0.9640 hc         1 7AB       0.057700
     50 C16          5.0740     1.5050    -0.3260 c3         1 7AB      -0.081100
@<TRIPOS>BOND
     1     1    11 1   
     2     1    20 1   
     3     1    21 1   
     4     1    47 1   
     5     2     3 1   
     6     2     7 1   
     7     2    17 1   
     8     2    50 1   
     9     3     4 1   
    10     3    22 1   
    11     3    23 1   
    12     4     5 1   
    13     4    24 1   
    14     4    25 1   
    15     5     6 1   
    16     5    26 1   
    17     5    48 1   
    18     6     7 2   
    19     6    18 1   
    20     7     8 1   
    21     8     9 2   
    22     8    27 1   
    23     9    10 1   
    24     9    28 1   
    25    10    11 2   
    26    10    19 1   
    27    11    12 1   
    28    12    13 2   
    29    12    29 1   
    30    13    14 1   
    31    13    30 1   
    32    14    15 2   
    33    14    20 1   
    34    15    16 1   
    35    15    31 1   
    36    16    32 1   
    37    16    33 2   
    38    17    37 1   
    39    17    38 1   
    40    17    39 1   
    41    18    40 1   
    42    18    41 1   
    43    18    42 1   
    44    19    43 1   
    45    19    44 1   
    46    19    45 1   
    47    20    46 1   
    48    20    49 1   
    49    34    50 1   
    50    35    50 1   
    51    36    50 1   
@<TRIPOS>SUBSTRUCTURE
     1 7AB         1 TEMP              0 ****  ****    0 ROOT
