@<TRIPOS>MOLECULE
7AC
   34    36     1     0     0
SMALL
abcg2


@<TRIPOS>ATOM
      1 C5           2.4280    -1.2480     0.1330 ca         1 7AC       0.055400
      2 C6           1.3930    -2.1530     0.3110 ca         1 7AC      -0.002000
      3 C7           0.1070    -1.6420     0.3570 ca         1 7AC      -0.028000
      4 C8          -0.9830    -2.5420     0.5410 cg         1 7AC       0.331000
      5 C10         -0.1620    -0.2570     0.2300 cp         1 7AC       0.005000
      6 C13         -3.3820     1.0630     1.6900 ca         1 7AC      -0.110000
      7 C15         -3.7570     0.5840    -0.6360 ca         1 7AC      -0.102000
      8 C21          2.1610     0.1310     0.0050 ca         1 7AC      -0.042200
      9 N2           3.3960     0.7040    -0.1530 na         1 7AC      -0.166600
     10 C3           4.2990    -0.3100    -0.1120 cc         1 7AC       0.415700
     11 N4           3.7750    -1.4870     0.0570 nd         1 7AC      -0.564100
     12 N9          -1.8550    -3.2820     0.6910 n1         1 7AC      -0.457000
     13 C11         -1.5720     0.1930     0.3400 cp         1 7AC      -0.045000
     14 C12         -2.0670     0.6430     1.5610 ca         1 7AC      -0.093000
     15 C14         -4.2260     1.0340     0.5890 ca         1 7AC      -0.095000
     16 C16         -2.4400     0.1690    -0.7480 ca         1 7AC       0.134000
     17 CL17        -1.8610    -0.3870    -2.2830 cl         1 7AC      -0.191000
     18 C18          0.8620     0.6580     0.0340 ca         1 7AC      -0.059300
     19 C19          0.5800     2.1320    -0.0850 c3         1 7AC       0.195100
     20 N20          0.9320     2.8140     1.1530 n8         1 7AC      -1.004200
     21 H6           1.5830    -3.2130     0.4100 ha         1 7AC       0.144000
     22 H13         -3.7460     1.4090     2.6480 ha         1 7AC       0.120000
     23 H15         -4.4110     0.5600    -1.4980 ha         1 7AC       0.132000
     24 H1           3.2750     2.7120     0.4060 h1         1 7AC       0.059033
     25 H1A          4.8240     2.1920    -0.2790 h1         1 7AC       0.059033
     26 H1B          3.4350     2.4350    -1.3430 h1         1 7AC       0.059033
     27 H3           5.3560    -0.1090    -0.2110 h5         1 7AC       0.062800
     28 H12         -1.4090     0.6520     2.4210 ha         1 7AC       0.122000
     29 H14         -5.2540     1.3600     0.6780 ha         1 7AC       0.120000
     30 H19          1.1780     2.5540    -0.8930 h1         1 7AC       0.042700
     31 H19A        -0.4640     2.2740    -0.3830 h1         1 7AC       0.042700
     32 HN20         0.7920     3.8100     1.0310 hn         1 7AC       0.398500
     33 HN2A         0.2970     2.5320     1.8900 hn         1 7AC       0.398500
     34 C1           3.7440     2.0950    -0.3560 c3         1 7AC       0.059900
@<TRIPOS>BOND
     1     1     2 ar  
     2     1     8 ar  
     3     1    11 1   
     4     2     3 ar  
     5     2    21 1   
     6     3     4 1   
     7     3     5 ar  
     8     4    12 3   
     9     5    13 1   
    10     5    18 ar  
    11     6    14 ar  
    12     6    15 ar  
    13     6    22 1   
    14     7    15 ar  
    15     7    16 ar  
    16     7    23 1   
    17     8     9 1   
    18     8    18 ar  
    19     9    10 1   
    20     9    34 1   
    21    10    11 2   
    22    10    27 1   
    23    13    14 ar  
    24    13    16 ar  
    25    14    28 1   
    26    15    29 1   
    27    16    17 1   
    28    18    19 1   
    29    19    20 1   
    30    19    30 1   
    31    19    31 1   
    32    20    32 1   
    33    20    33 1   
    34    24    34 1   
    35    25    34 1   
    36    26    34 1   
@<TRIPOS>SUBSTRUCTURE
     1 7AC         1 TEMP              0 ****  ****    0 ROOT
