@<TRIPOS>MOLECULE
7AC
   34    36     1     0     0
SMALL
No Charge or Current Charge


@<TRIPOS>ATOM
      1 C5           2.4710    -1.2540     0.1210 ca         1 7AC       0.055400
      2 C6           1.4360    -2.1610     0.3590 ca         1 7AC      -0.002000
      3 C7           0.1170    -1.6780     0.4500 ca         1 7AC      -0.028000
      4 C8          -0.9350    -2.6280     0.6930 cg         1 7AC       0.331000
      5 C10         -0.1600    -0.2850     0.2940 cp         1 7AC       0.005000
      6 C13         -3.4430     1.0110     1.7490 ca         1 7AC      -0.110000
      7 C15         -3.7180     0.7580    -0.6550 ca         1 7AC      -0.102000
      8 C21          2.2280     0.0910    -0.0230 ca         1 7AC      -0.042200
      9 N2           3.4730     0.6510    -0.2320 na         1 7AC      -0.166600
     10 C3           4.4120    -0.3810    -0.2170 cc         1 7AC       0.415700
     11 N4           3.8210    -1.5700     0.0020 nd         1 7AC      -0.564100
     12 N9          -1.7820    -3.4080     0.8900 n1         1 7AC      -0.457000
     13 C11         -1.5700     0.2010     0.3890 cp         1 7AC      -0.045000
     14 C12         -2.1170     0.5570     1.6440 ca         1 7AC      -0.093000
     15 C14         -4.2440     1.1120     0.5990 ca         1 7AC      -0.095000
     16 C16         -2.3920     0.3040    -0.7620 ca         1 7AC       0.134000
     17 Cl17        -1.7750    -0.1310    -2.3550 cl         1 7AC      -0.191000
     18 C18          0.9140     0.6290     0.0440 ca         1 7AC      -0.059300
     19 C19          0.6140     2.1200    -0.1570 c3         1 7AC       0.195100
     20 N20          0.7050     2.8850     1.1030 n8         1 7AC      -1.004200
     21 H6           1.6550    -3.2200     0.4700 ha         1 7AC       0.144000
     22 H13         -3.8500     1.2820     2.7210 ha         1 7AC       0.120000
     23 H15         -4.3370     0.8350    -1.5450 ha         1 7AC       0.132000
     24 H1           3.3110     2.6340     0.4890 h1         1 7AC       0.059033
     25 H1A          4.8500     2.2460    -0.3120 h1         1 7AC       0.059033
     26 H1B          3.3880     2.4730    -1.3010 h1         1 7AC       0.059033
     27 H3           5.4720    -0.2050    -0.3510 h5         1 7AC       0.062800
     28 H12         -1.5050     0.4770     2.5400 ha         1 7AC       0.122000
     29 H14         -5.2710     1.4630     0.6800 ha         1 7AC       0.120000
     30 H19          1.2910     2.5550    -0.9010 h1         1 7AC       0.042700
     31 H19A        -0.3980     2.2490    -0.5640 h1         1 7AC       0.042700
     32 HN20         0.4060     3.8520     0.9290 hn         1 7AC       0.398500
     33 HN2A        -0.0030     2.5260     1.7540 hn         1 7AC       0.398500
     34 C1           3.7650     2.0890    -0.3460 c3         1 7AC       0.059900
@<TRIPOS>BOND
     1     1     2 ar  
     2     1     8 ar  
     3     1    11 1   
     4     2     3 ar  
     5     2    21 1   
     6     3     4 1   
     7     3     5 ar  
     8     4    12 3   
     9     5    13 1   
    10     5    18 ar  
    11     6    14 ar  
    12     6    15 ar  
    13     6    22 1   
    14     7    15 ar  
    15     7    16 ar  
    16     7    23 1   
    17     8     9 1   
    18     8    18 ar  
    19     9    10 1   
    20     9    34 1   
    21    10    11 2   
    22    10    27 1   
    23    13    14 ar  
    24    13    16 ar  
    25    14    28 1   
    26    15    29 1   
    27    16    17 1   
    28    18    19 1   
    29    19    20 1   
    30    19    30 1   
    31    19    31 1   
    32    20    32 1   
    33    20    33 1   
    34    24    34 1   
    35    25    34 1   
    36    26    34 1   
@<TRIPOS>SUBSTRUCTURE
     1 7AC         1 TEMP              0 ****  ****    0 ROOT
