@<TRIPOS>MOLECULE
7AD
   46    48     1     0     0
SMALL
abcg2


@<TRIPOS>ATOM
      1 C1          -1.8340    -1.9630    -0.6770 ca         1 7AD      -0.057000
      2 C2          -0.9980    -1.9620     0.4010 ca         1 7AD      -0.147000
      3 C3           0.2630    -2.5770     0.3050 ca         1 7AD      -0.019000
      4 C4           0.6940    -3.1860    -0.8450 ca         1 7AD      -0.158600
      5 C5          -0.1270    -4.5580    -5.3200 ca         1 7AD      -0.116000
      6 C6          -0.9040    -4.6470    -6.4360 ca         1 7AD      -0.074000
      7 C7          -2.1850    -4.0520    -6.4670 ca         1 7AD      -0.136000
      8 C8          -2.6520    -3.3820    -5.3730 ca         1 7AD      -0.070000
      9 C9          -2.3120    -2.5880    -3.0280 ca         1 7AD       0.433000
     10 N10          0.2280    -3.8220    -3.1050 nb         1 7AD      -0.771000
     11 C11         -1.4540    -2.5790    -1.8910 ca         1 7AD      -0.191000
     12 C12         -0.1760    -3.2110    -1.9940 ca         1 7AD       0.380000
     13 C13         -1.8710    -3.2720    -4.1940 ca         1 7AD      -0.184000
     14 C14         -0.5840    -3.8690    -4.1640 ca         1 7AD       0.360000
     15 N1          -3.5030    -1.9870    -3.0010 nv         1 7AD      -1.097000
     16 C10          2.0770    -3.7860    -0.7920 c          1 7AD       0.611700
     17 O1           2.6820    -3.8480     0.2760 o          1 7AD      -0.637100
     18 N2           2.6000    -4.1970    -1.9510 ns         1 7AD      -0.500900
     19 C15          3.8830    -4.8510    -2.0590 c3         1 7AD       0.108000
     20 C16          3.8140    -6.3630    -1.8600 c3         1 7AD      -0.104400
     21 C17          2.9120    -7.0370    -2.8860 c3         1 7AD       0.162800
     22 N3           3.0240    -8.4840    -2.9020 n3         1 7AD      -0.714600
     23 C18          2.3090    -9.0400    -4.0300 c3         1 7AD       0.150600
     24 C19          2.5740    -9.0890    -1.6660 c3         1 7AD       0.150600
     25 H1          -2.7990    -1.4850    -0.5730 ha         1 7AD       0.098000
     26 H2          -1.2980    -1.4910     1.3260 ha         1 7AD       0.120000
     27 H3           0.9150    -2.5670     1.1670 ha         1 7AD       0.144000
     28 H5           0.8550    -5.0150    -5.2830 ha         1 7AD       0.128000
     29 H6          -0.5410    -5.1800    -7.3060 ha         1 7AD       0.117000
     30 H7          -2.7960    -4.1280    -7.3560 ha         1 7AD       0.116000
     31 H8          -3.6400    -2.9440    -5.4290 ha         1 7AD       0.098000
     32 HN11        -3.8030    -1.4260    -2.2240 hn         1 7AD       0.494000
     33 HN12        -4.0750    -1.9130    -3.8230 hn         1 7AD       0.494000
     34 HN2          1.9620    -4.1900    -2.7470 hn         1 7AD       0.360500
     35 H151         4.5740    -4.4140    -1.3390 h1         1 7AD       0.052200
     36 H152         4.2770    -4.6310    -3.0540 h1         1 7AD       0.052200
     37 H161         3.4770    -6.5700    -0.8410 hc         1 7AD       0.056700
     38 H162         4.8260    -6.7660    -1.9530 hc         1 7AD       0.056700
     39 H171         3.1910    -6.6740    -3.8820 h1         1 7AD       0.030200
     40 H172         1.8670    -6.7180    -2.7250 h1         1 7AD       0.030200
     41 H181         2.6910    -8.6210    -4.9620 h1         1 7AD       0.028867
     42 H182         1.2240    -8.8480    -3.9980 h1         1 7AD       0.028867
     43 H183         2.4510   -10.1210    -4.0660 h1         1 7AD       0.028867
     44 H191         1.5230    -8.8580    -1.4290 h1         1 7AD       0.028867
     45 H192         3.1860    -8.7630    -0.8250 h1         1 7AD       0.028867
     46 H193         2.6670   -10.1740    -1.7340 h1         1 7AD       0.028867
@<TRIPOS>BOND
     1     1     2 ar  
     2     1    11 ar  
     3     1    25 1   
     4     2     3 ar  
     5     2    26 1   
     6     3     4 ar  
     7     3    27 1   
     8     4    12 ar  
     9     4    16 1   
    10     5     6 ar  
    11     5    14 ar  
    12     5    28 1   
    13     6     7 ar  
    14     6    29 1   
    15     7     8 ar  
    16     7    30 1   
    17     8    13 ar  
    18     8    31 1   
    19     9    11 ar  
    20     9    13 ar  
    21     9    15 1   
    22    10    12 ar  
    23    10    14 ar  
    24    11    12 ar  
    25    13    14 ar  
    26    15    32 1   
    27    15    33 1   
    28    16    17 2   
    29    16    18 1   
    30    18    19 1   
    31    18    34 1   
    32    19    20 1   
    33    19    35 1   
    34    19    36 1   
    35    20    21 1   
    36    20    37 1   
    37    20    38 1   
    38    21    22 1   
    39    21    39 1   
    40    21    40 1   
    41    22    23 1   
    42    22    24 1   
    43    23    41 1   
    44    23    42 1   
    45    23    43 1   
    46    24    44 1   
    47    24    45 1   
    48    24    46 1   
@<TRIPOS>SUBSTRUCTURE
     1 7AD         1 TEMP              0 ****  ****    0 ROOT
