@<TRIPOS>MOLECULE
7AD
   46    48     1     0     0
SMALL
No Charge or Current Charge


@<TRIPOS>ATOM
      1 C1          -1.9440    -2.2120    -0.6510 ca         1 7AD      -0.057000
      2 C2          -1.0970    -2.2720     0.4560 ca         1 7AD      -0.147000
      3 C3           0.1900    -2.7960     0.3260 ca         1 7AD      -0.019000
      4 C4           0.6640    -3.2730    -0.9180 ca         1 7AD      -0.158600
      5 C5          -0.1010    -4.1440    -5.5580 ca         1 7AD      -0.116000
      6 C6          -0.8920    -4.1350    -6.7170 ca         1 7AD      -0.074000
      7 C7          -2.1940    -3.6210    -6.6610 ca         1 7AD      -0.136000
      8 C8          -2.6990    -3.1170    -5.4520 ca         1 7AD      -0.070000
      9 C9          -2.3530    -2.6300    -3.0440 ca         1 7AD       0.433000
     10 N10          0.2110    -3.6770    -3.2600 nb         1 7AD      -0.771000
     11 C11         -1.5060    -2.6810    -1.9130 ca         1 7AD      -0.191000
     12 C12         -0.1990    -3.2190    -2.0560 ca         1 7AD       0.380000
     13 C13         -1.8970    -3.1230    -4.2810 ca         1 7AD      -0.184000
     14 C14         -0.5910    -3.6430    -4.3380 ca         1 7AD       0.360000
     15 N1          -3.6170    -2.0960    -2.9460 nv         1 7AD      -1.097000
     16 C10          2.0840    -3.8230    -0.9360 c          1 7AD       0.611700
     17 O1           2.7470    -3.9190     0.0890 o          1 7AD      -0.637100
     18 N2           2.6220    -4.2130    -2.1370 ns         1 7AD      -0.500900
     19 C15          3.9300    -4.8390    -2.3330 c3         1 7AD       0.108000
     20 C16          3.9280    -6.3400    -1.9770 c3         1 7AD      -0.104400
     21 C17          2.9320    -7.1670    -2.8240 c3         1 7AD       0.162800
     22 N3           3.0330    -8.6380    -2.6430 n3         1 7AD      -0.714600
     23 C18          2.2310    -9.3740    -3.6450 c3         1 7AD       0.150600
     24 C19          2.7390    -9.0930    -1.2630 c3         1 7AD       0.150600
     25 H1          -2.9400    -1.8030    -0.5040 ha         1 7AD       0.098000
     26 H2          -1.4410    -1.9110     1.4230 ha         1 7AD       0.120000
     27 H3           0.8250    -2.8270     1.2100 ha         1 7AD       0.144000
     28 H5           0.9080    -4.5450    -5.6020 ha         1 7AD       0.128000
     29 H6          -0.4970    -4.5270    -7.6520 ha         1 7AD       0.117000
     30 H7          -2.8140    -3.6140    -7.5550 ha         1 7AD       0.116000
     31 H8          -3.7140    -2.7310    -5.4460 ha         1 7AD       0.098000
     32 HN11        -3.8440    -1.5330    -2.1310 hn         1 7AD       0.494000
     33 HN12        -4.1170    -1.8640    -3.7990 hn         1 7AD       0.494000
     34 HN2          1.9950    -4.1100    -2.9330 hn         1 7AD       0.360500
     35 H151         4.6740    -4.3170    -1.7170 h1         1 7AD       0.052200
     36 H152         4.2210    -4.7150    -3.3850 h1         1 7AD       0.052200
     37 H161         3.6940    -6.4500    -0.9120 hc         1 7AD       0.056700
     38 H162         4.9390    -6.7360    -2.1270 hc         1 7AD       0.056700
     39 H171         3.1190    -6.9240    -3.8800 h1         1 7AD       0.030200
     40 H172         1.9100    -6.8340    -2.5970 h1         1 7AD       0.030200
     41 H181         2.5220    -9.0860    -4.6640 h1         1 7AD       0.028867
     42 H182         1.1600    -9.1650    -3.5210 h1         1 7AD       0.028867
     43 H183         2.3830   -10.4580    -3.5460 h1         1 7AD       0.028867
     44 H191         1.7220    -8.8050    -0.9630 h1         1 7AD       0.028867
     45 H192         3.4470    -8.6630    -0.5420 h1         1 7AD       0.028867
     46 H193         2.8210   -10.1850    -1.1900 h1         1 7AD       0.028867
@<TRIPOS>BOND
     1     1     2 ar  
     2     1    11 ar  
     3     1    25 1   
     4     2     3 ar  
     5     2    26 1   
     6     3     4 ar  
     7     3    27 1   
     8     4    12 ar  
     9     4    16 1   
    10     5     6 ar  
    11     5    14 ar  
    12     5    28 1   
    13     6     7 ar  
    14     6    29 1   
    15     7     8 ar  
    16     7    30 1   
    17     8    13 ar  
    18     8    31 1   
    19     9    11 ar  
    20     9    13 ar  
    21     9    15 1   
    22    10    12 ar  
    23    10    14 ar  
    24    11    12 ar  
    25    13    14 ar  
    26    15    32 1   
    27    15    33 1   
    28    16    17 2   
    29    16    18 1   
    30    18    19 1   
    31    18    34 1   
    32    19    20 1   
    33    19    35 1   
    34    19    36 1   
    35    20    21 1   
    36    20    37 1   
    37    20    38 1   
    38    21    22 1   
    39    21    39 1   
    40    21    40 1   
    41    22    23 1   
    42    22    24 1   
    43    23    41 1   
    44    23    42 1   
    45    23    43 1   
    46    24    44 1   
    47    24    45 1   
    48    24    46 1   
@<TRIPOS>SUBSTRUCTURE
     1 7AD         1 TEMP              0 ****  ****    0 ROOT
