@<TRIPOS>MOLECULE
7AE
   61    65     1     0     0
SMALL
No Charge or Current Charge


@<TRIPOS>ATOM
      1 C6           5.2310     2.7670    -0.4350 c6         1 7AE       0.151800
      2 C7           4.0760     3.4910    -1.1810 c6         1 7AE       0.160600
      3 C13          0.6220     2.2070     1.0220 cc         1 7AE      -0.252000
      4 C15         -0.7420     0.3290     0.3340 cc         1 7AE       0.486900
      5 C17         -1.7140    -0.7740     0.2210 ca         1 7AE      -0.085500
      6 C20         -3.4590    -2.9740    -0.0560 ca         1 7AE      -0.164000
      7 C21         -3.9740    -1.6700    -0.0020 ca         1 7AE      -0.070000
      8 C22         -3.1150    -0.5540     0.1170 ca         1 7AE      -0.086000
      9 C24         -4.8640     1.3150    -0.2390 c          1 7AE       0.539600
     10 C26         -4.9340     2.8000    -0.0030 cc         1 7AE       0.324000
     11 C28         -5.7030     4.9060     0.0780 cc         1 7AE      -0.215000
     12 C1           6.4220     0.8520     1.9770 c3         1 7AE      -0.382100
     13 S2           6.3100     0.3630     0.2620 s6         1 7AE       1.196100
     14 O3           7.5220     0.7920    -0.4440 o          1 7AE      -0.529000
     15 O4           5.9000    -1.0430     0.1880 o          1 7AE      -0.529000
     16 N5           5.0080     1.2900    -0.3830 n3         1 7AE      -0.718500
     17 O8           2.8040     3.1560    -0.5800 os         1 7AE      -0.448000
     18 C9           2.5290     1.7290    -0.5960 c6         1 7AE       0.148000
     19 C11          3.6530     0.9630     0.1590 c6         1 7AE       0.157800
     20 C12          1.1720     1.4320     0.0260 cd         1 7AE       0.272300
     21 S14         -0.9190     1.5880     1.5360 ss         1 7AE       0.032600
     22 N16          0.3980     0.3410    -0.3490 nd         1 7AE      -0.656000
     23 C18         -1.2180    -2.0950     0.1290 ca         1 7AE      -0.127000
     24 C19         -2.0740    -3.2000    -0.0000 ca         1 7AE       0.314000
     25 N23         -3.6290     0.7790     0.1220 ns         1 7AE      -0.154000
     26 O25         -5.7900     0.6570    -0.7120 o          1 7AE      -0.588100
     27 N27         -6.0210     3.6080    -0.2690 na         1 7AE      -0.248500
     28 C29         -4.4200     4.8480     0.5490 cd         1 7AE       0.230900
     29 N30         -3.9490     3.5530     0.4980 nd         1 7AE      -0.665000
     30 N32         -1.5380    -4.5090    -0.0700 nh         1 7AE      -0.788400
     31 C33         -0.6080    -5.0050     0.9990 c6         1 7AE       0.163300
     32 C34          0.2730    -6.1930     0.5100 c6         1 7AE       0.146100
     33 O35         -0.5450    -7.2350    -0.0730 os         1 7AE      -0.443000
     34 C36         -1.3100    -6.7670    -1.2090 c6         1 7AE       0.146100
     35 C37         -2.2620    -5.6050    -0.7950 c6         1 7AE       0.163300
     36 H1           6.1730     3.0010    -0.9500 h1         1 7AE       0.063200
     37 H2           5.3040     3.1840     0.5800 h1         1 7AE       0.063200
     38 H3           4.2230     4.5790    -1.1330 h1         1 7AE       0.060700
     39 H4           4.0690     3.1930    -2.2390 h1         1 7AE       0.060700
     40 H5           1.0280     3.0970     1.4840 h4         1 7AE       0.171000
     41 H6          -4.1480    -3.8080    -0.1380 ha         1 7AE       0.118000
     42 H7          -5.0520    -1.5490    -0.0450 ha         1 7AE       0.121000
     43 H8          -6.3820     5.7440    -0.0290 h4         1 7AE       0.164000
     44 H9           6.6320     1.9260     2.0090 h1         1 7AE       0.100700
     45 H10          5.4690     0.6150     2.4590 h1         1 7AE       0.100700
     46 H11          7.2410     0.2800     2.4240 h1         1 7AE       0.100700
     47 H12          2.5190     1.3910    -1.6420 h1         1 7AE       0.074700
     48 H13          3.4500    -0.1150     0.0710 h1         1 7AE       0.071200
     49 H14          3.5910     1.2160     1.2280 h1         1 7AE       0.071200
     50 H15         -0.1460    -2.2670     0.1600 ha         1 7AE       0.144000
     51 H16         -2.9820     1.4800     0.4590 hn         1 7AE       0.188000
     52 H17         -6.9000     3.2790    -0.6570 hn         1 7AE       0.375000
     53 H18         -3.8100     5.6630     0.9200 h4         1 7AE       0.043100
     54 H20          0.0580    -4.2020     1.3440 h1         1 7AE       0.050450
     55 H21         -1.1910    -5.3350     1.8720 h1         1 7AE       0.050450
     56 H22          0.9940    -5.8370    -0.2410 h1         1 7AE       0.055450
     57 H23          0.8400    -6.6090     1.3540 h1         1 7AE       0.055450
     58 H24         -0.6200    -6.4220    -1.9920 h1         1 7AE       0.055450
     59 H25         -1.8970    -7.6020    -1.6180 h1         1 7AE       0.055450
     60 H26         -3.0600    -6.0140    -0.1580 h1         1 7AE       0.050450
     61 H27         -2.7380    -5.2100    -1.7050 h1         1 7AE       0.050450
@<TRIPOS>BOND
     1     1     2 1   
     2     1    16 1   
     3     1    36 1   
     4     1    37 1   
     5     2    17 1   
     6     2    38 1   
     7     2    39 1   
     8     3    20 2   
     9     3    21 1   
    10     3    40 1   
    11     4     5 1   
    12     4    21 1   
    13     4    22 2   
    14     5     8 ar  
    15     5    23 ar  
    16     6     7 ar  
    17     6    24 ar  
    18     6    41 1   
    19     7     8 ar  
    20     7    42 1   
    21     8    25 1   
    22     9    10 1   
    23     9    25 1   
    24     9    26 2   
    25    10    27 1   
    26    10    29 2   
    27    11    27 1   
    28    11    28 2   
    29    11    43 1   
    30    12    13 1   
    31    12    44 1   
    32    12    45 1   
    33    12    46 1   
    34    13    14 2   
    35    13    15 2   
    36    13    16 1   
    37    16    19 1   
    38    17    18 1   
    39    18    19 1   
    40    18    20 1   
    41    18    47 1   
    42    19    48 1   
    43    19    49 1   
    44    20    22 1   
    45    23    24 ar  
    46    23    50 1   
    47    24    30 1   
    48    25    51 1   
    49    27    52 1   
    50    28    29 1   
    51    28    53 1   
    52    30    31 1   
    53    30    35 1   
    54    31    32 1   
    55    31    54 1   
    56    31    55 1   
    57    32    33 1   
    58    32    56 1   
    59    32    57 1   
    60    33    34 1   
    61    34    35 1   
    62    34    58 1   
    63    34    59 1   
    64    35    60 1   
    65    35    61 1   
@<TRIPOS>SUBSTRUCTURE
     1 7AE         1 TEMP              0 ****  ****    0 ROOT
