@<TRIPOS>MOLECULE
7AE
   61    65     1     0     0
SMALL
abcg2


@<TRIPOS>ATOM
      1 C6           5.3000     2.3680    -0.3170 c6         1 7AE       0.151800
      2 C7           4.4380     2.9190    -1.4360 c6         1 7AE       0.160600
      3 C13          0.4420     2.6800    -0.2510 cc         1 7AE      -0.252000
      4 C15         -0.7200     0.5520    -0.0790 cc         1 7AE       0.486900
      5 C17         -1.6350    -0.5850     0.0830 ca         1 7AE      -0.085500
      6 C20         -3.2480    -2.8450     0.3250 ca         1 7AE      -0.164000
      7 C21         -3.7670    -1.5810     0.5340 ca         1 7AE      -0.070000
      8 C22         -2.9840    -0.4450     0.4250 ca         1 7AE      -0.086000
      9 C24         -4.2880     1.4810    -0.2530 c          1 7AE       0.539600
     10 C26         -4.8650     2.7430     0.2370 cc         1 7AE       0.324000
     11 C28         -5.9740     4.6190     0.1950 cc         1 7AE      -0.215000
     12 C1           5.9070     0.6530     2.4880 c3         1 7AE      -0.382100
     13 S2           5.8860     0.0280     0.8220 s6         1 7AE       1.196100
     14 O3           7.2130     0.2030     0.2530 o          1 7AE      -0.529000
     15 O4           5.2970    -1.3020     0.8420 o          1 7AE      -0.529000
     16 N5           4.8590     1.0020    -0.0380 n3         1 7AE      -0.718500
     17 O8           3.0660     2.8590    -1.1130 os         1 7AE      -0.448000
     18 C9           2.6440     1.5470    -0.8560 c6         1 7AE       0.148000
     19 C11          3.4390     0.9270     0.2930 c6         1 7AE       0.157800
     20 C12          1.1890     1.5760    -0.5110 cd         1 7AE       0.272300
     21 S14         -1.1580     2.2160     0.1330 ss         1 7AE       0.032600
     22 N16          0.5270     0.3940    -0.4100 nd         1 7AE      -0.656000
     23 C18         -1.1170    -1.8590    -0.1300 ca         1 7AE      -0.127000
     24 C19         -1.8980    -3.0150    -0.0210 ca         1 7AE       0.314000
     25 N23         -3.5520     0.8260     0.6720 ns         1 7AE      -0.154000
     26 O25         -4.4580     1.0970    -1.3970 o          1 7AE      -0.588100
     27 N27         -5.6030     3.5510    -0.5500 na         1 7AE      -0.248500
     28 C29         -5.4280     4.4070     1.4370 cd         1 7AE       0.230900
     29 N30         -4.7410     3.2370     1.4480 nd         1 7AE      -0.665000
     30 N32         -1.3570    -4.2650    -0.2780 nh         1 7AE      -0.788400
     31 C33          0.0180    -4.5260     0.1280 c6         1 7AE       0.163300
     32 C34          0.5500    -5.7720    -0.5520 c6         1 7AE       0.146100
     33 O35         -0.2710    -6.8900    -0.3110 os         1 7AE      -0.443000
     34 C36         -1.5720    -6.6420    -0.7860 c6         1 7AE       0.146100
     35 C37         -2.2060    -5.4320    -0.1240 c6         1 7AE       0.163300
     36 H1           6.3380     2.3680    -0.6420 h1         1 7AE       0.063200
     37 H2           5.2150     3.0060     0.5710 h1         1 7AE       0.063200
     38 H3           4.6850     3.9660    -1.6050 h1         1 7AE       0.060700
     39 H4           4.6430     2.3630    -2.3600 h1         1 7AE       0.060700
     40 H5           0.7360     3.7170    -0.2630 h4         1 7AE       0.171000
     41 H6          -3.9100    -3.6890     0.4480 ha         1 7AE       0.118000
     42 H7          -4.8100    -1.4760     0.8070 ha         1 7AE       0.121000
     43 H8          -6.5760     5.4200    -0.2010 h4         1 7AE       0.164000
     44 H9           6.2540     1.6840     2.4880 h1         1 7AE       0.100700
     45 H10          4.9080     0.5930     2.9130 h1         1 7AE       0.100700
     46 H11          6.5910     0.0360     3.0670 h1         1 7AE       0.100700
     47 H12          2.7880     0.9140    -1.7450 h1         1 7AE       0.074700
     48 H13          3.1340    -0.1120     0.4100 h1         1 7AE       0.071200
     49 H14          3.2090     1.4640     1.2240 h1         1 7AE       0.071200
     50 H15         -0.0760    -1.9270    -0.4090 ha         1 7AE       0.144000
     51 H16         -3.5460     1.1970     1.6140 hn         1 7AE       0.188000
     52 H17         -5.8360     3.3870    -1.5180 hn         1 7AE       0.375000
     53 H18         -5.5040     5.0370     2.3090 h4         1 7AE       0.043100
     54 H20          0.6700    -3.7020    -0.1540 h1         1 7AE       0.050450
     55 H21          0.0840    -4.6380     1.2190 h1         1 7AE       0.050450
     56 H22          0.6410    -5.5880    -1.6320 h1         1 7AE       0.055450
     57 H23          1.5430    -5.9980    -0.1630 h1         1 7AE       0.055450
     58 H24         -1.5610    -6.4920    -1.8740 h1         1 7AE       0.055450
     59 H25         -2.1780    -7.5250    -0.5750 h1         1 7AE       0.055450
     60 H26         -2.4140    -5.6430     0.9350 h1         1 7AE       0.050450
     61 H27         -3.1640    -5.2660    -0.6180 h1         1 7AE       0.050450
@<TRIPOS>BOND
     1     1     2 1   
     2     1    16 1   
     3     1    36 1   
     4     1    37 1   
     5     2    17 1   
     6     2    38 1   
     7     2    39 1   
     8     3    20 2   
     9     3    21 1   
    10     3    40 1   
    11     4     5 1   
    12     4    21 1   
    13     4    22 2   
    14     5     8 ar  
    15     5    23 ar  
    16     6     7 ar  
    17     6    24 ar  
    18     6    41 1   
    19     7     8 ar  
    20     7    42 1   
    21     8    25 1   
    22     9    10 1   
    23     9    25 1   
    24     9    26 2   
    25    10    27 1   
    26    10    29 2   
    27    11    27 1   
    28    11    28 2   
    29    11    43 1   
    30    12    13 1   
    31    12    44 1   
    32    12    45 1   
    33    12    46 1   
    34    13    14 2   
    35    13    15 2   
    36    13    16 1   
    37    16    19 1   
    38    17    18 1   
    39    18    19 1   
    40    18    20 1   
    41    18    47 1   
    42    19    48 1   
    43    19    49 1   
    44    20    22 1   
    45    23    24 ar  
    46    23    50 1   
    47    24    30 1   
    48    25    51 1   
    49    27    52 1   
    50    28    29 1   
    51    28    53 1   
    52    30    31 1   
    53    30    35 1   
    54    31    32 1   
    55    31    54 1   
    56    31    55 1   
    57    32    33 1   
    58    32    56 1   
    59    32    57 1   
    60    33    34 1   
    61    34    35 1   
    62    34    58 1   
    63    34    59 1   
    64    35    60 1   
    65    35    61 1   
@<TRIPOS>SUBSTRUCTURE
     1 7AE         1 TEMP              0 ****  ****    0 ROOT
