@<TRIPOS>MOLECULE
7AF
   65    65     1     0     0
SMALL
bcc


@<TRIPOS>ATOM
      1 C1          -6.9390     0.2280    -1.1180 ca         1 7AF      -0.103500
      2 C2          -8.2630     0.5950    -0.9250 ca         1 7AF      -0.139500
      3 C3          -9.1260    -0.2500    -0.2370 ca         1 7AF      -0.130000
      4 C9          -2.9610    -0.8750     0.2460 c          1 7AF       0.749100
      5 C12         -0.9890    -0.0410     1.4360 c3         1 7AF      -0.089200
      6 C20          3.3260     1.7740    -2.7720 c3         1 7AF      -0.084600
      7 C21          4.0130     4.1040    -2.1410 c3         1 7AF      -0.084600
      8 C22          3.3780     0.7850     0.7400 c          1 7AF       0.663100
      9 P13         -0.5030     1.6110     0.7710 p5         1 7AF       1.196500
     10 C6          -6.4610    -0.9850    -0.6270 ca         1 7AF      -0.083300
     11 C4          -8.6590    -1.4610     0.2550 ca         1 7AF      -0.139500
     12 C5          -7.3320    -1.8240     0.0610 ca         1 7AF      -0.103500
     13 N16          1.1690     1.6310     1.1060 n7         1 7AF      -0.924300
     14 C17          2.1790     1.4610     0.0820 c3         1 7AF       0.183500
     15 C18          2.5890     2.7850    -0.5640 c3         1 7AF      -0.097400
     16 O14         -1.1690     2.6520     1.6400 o          1 7AF      -0.821000
     17 N11         -2.4150    -0.2520     1.3040 ns         1 7AF      -0.515900
     18 O10         -2.3630    -1.5430    -0.5740 o          1 7AF      -0.607000
     19 O8          -4.2920    -0.7000     0.2310 os         1 7AF      -0.445900
     20 C25          4.7070    -1.2950     0.8420 c3         1 7AF       0.099000
     21 C26          5.8580    -1.5460    -0.1410 c3         1 7AF      -0.074700
     22 C27          6.4060    -0.2250    -0.6730 c3         1 7AF      -0.086100
     23 C28          6.9530    -2.4010     0.5260 c3         1 7AF      -0.057700
     24 C30          6.4180    -3.7320     1.0560 c3         1 7AF      -0.086600
     25 C29          8.1190    -2.6780    -0.4220 c3         1 7AF      -0.086600
     26 H1          -6.2720     0.8870    -1.6610 ha         1 7AF       0.136500
     27 H2          -8.6230     1.5380    -1.3150 ha         1 7AF       0.123500
     28 H3         -10.1600     0.0330    -0.0890 ha         1 7AF       0.119000
     29 H4          -4.8910    -2.4420    -0.7350 h1         1 7AF       0.049700
     30 H5          -4.6570    -1.0400    -1.7870 h1         1 7AF       0.049700
     31 H6          -0.4600    -0.8400     0.9170 h1         1 7AF       0.055700
     32 H7          -0.7190    -0.1170     2.4910 h1         1 7AF       0.055700
     33 H8           4.6000     2.3190    -1.1440 hc         1 7AF       0.038700
     34 H9           4.1050     1.7730    -3.5370 hc         1 7AF       0.027700
     35 H10          3.1990     0.7410    -2.4450 hc         1 7AF       0.027700
     36 H11          2.3920     2.0860    -3.2470 hc         1 7AF       0.027700
     37 H12          3.1450     4.5490    -2.6320 hc         1 7AF       0.027700
     38 H13          4.3110     4.7710    -1.3290 hc         1 7AF       0.027700
     39 H14          4.8280     4.0790    -2.8660 hc         1 7AF       0.027700
     40 H15         -9.3260    -2.1240     0.7900 ha         1 7AF       0.123500
     41 H16         -6.9740    -2.7720     0.4460 ha         1 7AF       0.136500
     42 H17          1.4500     2.2640     1.8420 hn         1 7AF       0.399800
     43 H18          1.7570     0.8090    -0.6860 h1         1 7AF       0.071700
     44 H19          2.8990     3.4720     0.2300 hc         1 7AF       0.058700
     45 H20          1.6860     3.2120    -1.0120 hc         1 7AF       0.058700
     46 H21          3.0630    -0.8560    -0.3970 hn         1 7AF       0.313500
     47 H23         -3.0100     0.3610     1.8390 hn         1 7AF       0.321500
     48 H24          5.0910    -0.8200     1.7460 h1         1 7AF       0.050700
     49 H25          4.2560    -2.2400     1.1450 h1         1 7AF       0.050700
     50 H26          5.4620    -2.1210    -0.9900 hc         1 7AF       0.039700
     51 H27          7.1800    -0.3790    -1.4240 hc         1 7AF       0.036033
     52 H28          5.6220     0.3630    -1.1500 hc         1 7AF       0.036033
     53 H29          6.8330     0.3790     0.1310 hc         1 7AF       0.036033
     54 H30          7.3400    -1.8270     1.3790 hc         1 7AF       0.046700
     55 H31          7.2320    -4.3360     1.4580 hc         1 7AF       0.029200
     56 H32          5.6870    -3.6110     1.8540 hc         1 7AF       0.029200
     57 H33          5.9460    -4.3080     0.2560 hc         1 7AF       0.029200
     58 H34          8.6360    -1.7710    -0.7310 hc         1 7AF       0.029200
     59 H35          8.8570    -3.3220     0.0590 hc         1 7AF       0.029200
     60 H36          7.7750    -3.1910    -1.3240 hc         1 7AF       0.029200
     61 C7          -5.0210    -1.3590    -0.8070 c3         1 7AF       0.208700
     62 O23          4.0110     1.3580     1.6190 o          1 7AF      -0.634100
     63 C19          3.6910     2.7070    -1.6200 c3         1 7AF      -0.057700
     64 O15         -0.7280     1.5950    -0.7200 o          1 7AF      -0.821000
     65 N24          3.6540    -0.4570     0.3140 ns         1 7AF      -0.575900
@<TRIPOS>BOND
     1     1     2 ar  
     2     1    10 ar  
     3     1    26 1   
     4     2     3 ar  
     5     2    27 1   
     6     3    11 ar  
     7     3    28 1   
     8     4    17 1   
     9     4    18 2   
    10     4    19 1   
    11     5     9 1   
    12     5    17 1   
    13     5    31 1   
    14     5    32 1   
    15     6    34 1   
    16     6    35 1   
    17     6    36 1   
    18     6    63 1   
    19     7    37 1   
    20     7    38 1   
    21     7    39 1   
    22     7    63 1   
    23     8    14 1   
    24     8    62 2   
    25     8    65 1   
    26     9    13 1   
    27     9    16 1   
    28     9    64 1   
    29    10    12 ar  
    30    10    61 1   
    31    11    12 ar  
    32    11    40 1   
    33    12    41 1   
    34    13    14 1   
    35    13    42 1   
    36    14    15 1   
    37    14    43 1   
    38    15    44 1   
    39    15    45 1   
    40    15    63 1   
    41    17    47 1   
    42    19    61 1   
    43    20    21 1   
    44    20    48 1   
    45    20    49 1   
    46    20    65 1   
    47    21    22 1   
    48    21    23 1   
    49    21    50 1   
    50    22    51 1   
    51    22    52 1   
    52    22    53 1   
    53    23    24 1   
    54    23    25 1   
    55    23    54 1   
    56    24    55 1   
    57    24    56 1   
    58    24    57 1   
    59    25    58 1   
    60    25    59 1   
    61    25    60 1   
    62    29    61 1   
    63    30    61 1   
    64    33    63 1   
    65    46    65 1   
@<TRIPOS>SUBSTRUCTURE
     1 7AF         1 TEMP              0 ****  ****    0 ROOT
