@<TRIPOS>MOLECULE
7AF
   65    65     1     0     0
SMALL
No Charge or Current Charge


@<TRIPOS>ATOM
      1 C1          -7.6600     0.5010     0.2500 ca         1 7AF      -0.085500
      2 C2          -8.8470    -0.0810     0.7300 ca         1 7AF      -0.121500
      3 C3          -9.2570    -1.3380     0.2550 ca         1 7AF      -0.112000
      4 C9          -3.2610     0.5000    -0.6970 c          1 7AF       0.633100
      5 C12         -0.9060     0.2890     0.2340 c3         1 7AF      -0.247000
      6 C20          3.1760     0.7050    -2.7220 c3         1 7AF      -0.084600
      7 C21          3.4870     3.2210    -2.9400 c3         1 7AF      -0.084600
      8 C22          3.6100     0.8540     0.8850 c          1 7AF       0.596100
      9 P13         -0.3950     1.8660     1.0780 p5         1 7AF       1.354300
     10 C6          -6.8770    -0.1710    -0.7090 ca         1 7AF      -0.083300
     11 C4          -8.4780    -2.0140    -0.7000 ca         1 7AF      -0.121500
     12 C5          -7.2910    -1.4330    -1.1800 ca         1 7AF      -0.085500
     13 N16          1.2040     1.5730     1.2930 n7         1 7AF      -0.979500
     14 C17          2.2110     1.2000     0.2470 c3         1 7AF       0.183500
     15 C18          2.3340     2.2890    -0.8610 c3         1 7AF      -0.097400
     16 O14         -0.9740     2.0570     2.4350 o          1 7AF      -0.821000
     17 N11         -2.3640    -0.0160     0.2030 ns         1 7AF      -0.448900
     18 O10         -2.9810     1.2370    -1.6310 o          1 7AF      -0.558000
     19 O8          -4.5040     0.0390    -0.3920 os         1 7AF      -0.469100
     20 C25          5.1860    -1.0550     1.4280 c3         1 7AF       0.099000
     21 C26          6.1750    -1.5840     0.3470 c3         1 7AF      -0.074700
     22 C27          6.5370    -0.4660    -0.6700 c3         1 7AF      -0.086100
     23 C28          7.4490    -2.2470     0.9840 c3         1 7AF      -0.057700
     24 C30          7.1050    -3.3740     1.9940 c3         1 7AF      -0.086600
     25 C29          8.4420    -2.7960    -0.0740 c3         1 7AF      -0.086600
     26 H1          -7.3490     1.4740     0.6250 ha         1 7AF       0.118500
     27 H2          -9.4480     0.4420     1.4700 ha         1 7AF       0.105500
     28 H3         -10.1750    -1.7880     0.6260 ha         1 7AF       0.101000
     29 H4          -5.4260     0.1450    -2.2700 h1         1 7AF       0.049700
     30 H5          -5.6910     1.5530    -1.2210 h1         1 7AF       0.049700
     31 H6          -0.5250     0.3410    -0.7930 h1         1 7AF       0.055700
     32 H7          -0.3890    -0.5250     0.7540 h1         1 7AF       0.055700
     33 H8           4.3880     1.9670    -1.4700 hc         1 7AF       0.038700
     34 H9           3.9350     0.5740    -3.5030 hc         1 7AF       0.027700
     35 H10          3.2410    -0.1600    -2.0530 hc         1 7AF       0.027700
     36 H11          2.1890     0.6980    -3.2000 hc         1 7AF       0.027700
     37 H12          2.5400     3.3480    -3.4780 hc         1 7AF       0.027700
     38 H13          3.7060     4.1530    -2.4050 hc         1 7AF       0.027700
     39 H14          4.2830     3.0620    -3.6780 hc         1 7AF       0.027700
     40 H15         -8.7930    -2.9880    -1.0670 ha         1 7AF       0.105500
     41 H16         -6.6930    -1.9640    -1.9180 ha         1 7AF       0.118500
     42 H17          1.4630     2.4750     1.6850 hn         1 7AF       0.455000
     43 H18          1.8740     0.2780    -0.2460 h1         1 7AF       0.071700
     44 H19          2.5480     3.2530    -0.3810 hc         1 7AF       0.058700
     45 H20          1.3680     2.3960    -1.3670 hc         1 7AF       0.058700
     46 H21          3.2760    -1.1250     0.4630 hn         1 7AF       0.313500
     47 H23         -2.7660    -0.6050     0.9230 hn         1 7AF       0.321500
     48 H24          5.6930    -0.3050     2.0490 h1         1 7AF       0.050700
     49 H25          4.8820    -1.8770     2.0870 h1         1 7AF       0.050700
     50 H26          5.6460    -2.3660    -0.2130 hc         1 7AF       0.039700
     51 H27          7.1250    -0.8570    -1.5070 hc         1 7AF       0.036033
     52 H28          5.6380    -0.0240    -1.1090 hc         1 7AF       0.036033
     53 H29          7.1100     0.3330    -0.1850 hc         1 7AF       0.036033
     54 H30          7.9820    -1.4690     1.5460 hc         1 7AF       0.046700
     55 H31          8.0160    -3.8700     2.3490 hc         1 7AF       0.029200
     56 H32          6.5950    -2.9790     2.8800 hc         1 7AF       0.029200
     57 H33          6.4640    -4.1320     1.5290 hc         1 7AF       0.029200
     58 H34          8.8850    -1.9870    -0.6670 hc         1 7AF       0.029200
     59 H35          9.2710    -3.3260     0.4080 hc         1 7AF       0.029200
     60 H36          7.9410    -3.4940    -0.7550 hc         1 7AF       0.029200
     61 C7          -5.5920     0.4600    -1.2310 c3         1 7AF       0.231900
     62 O23          4.3460     1.7010     1.3830 o          1 7AF      -0.634100
     63 C19          3.4080     2.0310    -1.9570 c3         1 7AF      -0.057700
     64 O15         -0.5270     3.0680     0.2140 o          1 7AF      -0.821000
     65 N24          3.9510    -0.4880     0.8690 ns         1 7AF      -0.508900
@<TRIPOS>BOND
     1     1     2 ar  
     2     1    10 ar  
     3     1    26 1   
     4     2     3 ar  
     5     2    27 1   
     6     3    11 ar  
     7     3    28 1   
     8     4    17 1   
     9     4    18 2   
    10     4    19 1   
    11     5     9 1   
    12     5    17 1   
    13     5    31 1   
    14     5    32 1   
    15     6    34 1   
    16     6    35 1   
    17     6    36 1   
    18     6    63 1   
    19     7    37 1   
    20     7    38 1   
    21     7    39 1   
    22     7    63 1   
    23     8    14 1   
    24     8    62 2   
    25     8    65 1   
    26     9    13 1   
    27     9    16 1   
    28     9    64 1   
    29    10    12 ar  
    30    10    61 1   
    31    11    12 ar  
    32    11    40 1   
    33    12    41 1   
    34    13    14 1   
    35    13    42 1   
    36    14    15 1   
    37    14    43 1   
    38    15    44 1   
    39    15    45 1   
    40    15    63 1   
    41    17    47 1   
    42    19    61 1   
    43    20    21 1   
    44    20    48 1   
    45    20    49 1   
    46    20    65 1   
    47    21    22 1   
    48    21    23 1   
    49    21    50 1   
    50    22    51 1   
    51    22    52 1   
    52    22    53 1   
    53    23    24 1   
    54    23    25 1   
    55    23    54 1   
    56    24    55 1   
    57    24    56 1   
    58    24    57 1   
    59    25    58 1   
    60    25    59 1   
    61    25    60 1   
    62    29    61 1   
    63    30    61 1   
    64    33    63 1   
    65    46    65 1   
@<TRIPOS>SUBSTRUCTURE
     1 7AF         1 TEMP              0 ****  ****    0 ROOT
