@<TRIPOS>MOLECULE
7AG
   61    63     1     0     0
SMALL
bcc


@<TRIPOS>ATOM
      1 CAY          9.7190     0.7000    -0.0570 ca         1 7AG      -0.121500
      2 CAZ         10.8430     0.8920     0.7370 ca         1 7AG      -0.126500
      3 CBG         10.9060     0.3240     2.0020 ca         1 7AG      -0.124000
      4 CBF          9.8390    -0.4350     2.4650 ca         1 7AG      -0.126500
      5 CBE          8.7200    -0.6270     1.6680 ca         1 7AG      -0.121500
      6 CAX          8.6450    -0.0630     0.3940 ca         1 7AG      -0.087300
      7 CAW          7.4300    -0.2590    -0.4810 c3         1 7AG      -0.030400
      8 CAE          7.1390    -1.7330    -0.7500 c3         1 7AG      -0.090100
      9 CAV          6.2350     0.4580     0.1580 c3         1 7AG       0.053300
     10 NAU          5.0530     0.4130    -0.6800 na         1 7AG       0.103400
     11 CAT          3.9640    -0.3620    -0.5560 cc         1 7AG      -0.209600
     12 NAD          4.9780     1.1630    -1.7650 nc         1 7AG      -0.211800
     13 NAC          3.8580     0.9030    -2.3490 nd         1 7AG      -0.362000
     14 CAS          3.1910    -0.0350    -1.6430 cd         1 7AG       0.223600
     15 CAR          1.8390    -0.5300    -2.0380 c3         1 7AG       0.088700
     16 NAQ          0.7660     0.1080    -1.3060 ns         1 7AG      -0.567900
     17 CAP          0.4180    -0.2680    -0.0630 c          1 7AG       0.669100
     18 OAB          0.9520    -1.2080     0.5100 o          1 7AG      -0.610100
     19 CAO         -0.7210     0.5170     0.5500 c3         1 7AG      -0.165400
     20 CAN         -2.0790    -0.0230     0.0950 c3         1 7AG      -0.059400
     21 CAM         -3.2090     0.7130     0.7940 c3         1 7AG      -0.161400
     22 CAL         -4.5860     0.2260     0.3940 c          1 7AG       0.672100
     23 OBD         -4.7690    -0.8210    -0.1990 o          1 7AG      -0.561100
     24 NAK         -5.5850     1.0640     0.7800 ns         1 7AG      -0.477100
     25 CAJ         -6.9680     0.9260     0.6420 ca         1 7AG       0.069600
     26 CAI         -7.5940    -0.1660     0.0470 ca         1 7AG      -0.102000
     27 CBC         -7.7550     1.9700     1.1380 ca         1 7AG      -0.171000
     28 CBB         -9.1320     1.9190     1.0420 ca         1 7AG      -0.108000
     29 CBA         -9.7590     0.8260     0.4600 ca         1 7AG      -0.135000
     30 CAH         -8.9840    -0.2190    -0.0300 ca         1 7AG      -0.123600
     31 CAG         -9.5860    -1.4210    -0.6940 c          1 7AG       0.680700
     32 OAF         -8.9360    -2.1030    -1.4750 o          1 7AG      -0.594100
     33 NAA        -10.8610    -1.6940    -0.3820 nt         1 7AG      -0.673000
     34 H1           9.6760     1.1480    -1.0430 ha         1 7AG       0.131000
     35 H2          11.6680     1.4870     0.3660 ha         1 7AG       0.132500
     36 H3          11.7800     0.4720     2.6240 ha         1 7AG       0.132000
     37 H4           9.8800    -0.8820     3.4500 ha         1 7AG       0.132500
     38 H5           7.9000    -1.2240     2.0500 ha         1 7AG       0.131000
     39 H6           7.6300     0.2310    -1.4390 hc         1 7AG       0.075700
     40 H7           6.3400    -1.8550    -1.4830 hc         1 7AG       0.042033
     41 H8           8.0230    -2.2300    -1.1490 hc         1 7AG       0.042033
     42 H9           6.8400    -2.2610     0.1570 hc         1 7AG       0.042033
     43 H10          5.9710    -0.0000     1.1110 h1         1 7AG       0.071200
     44 H11          6.4720     1.5040     0.3460 h1         1 7AG       0.071200
     45 H12          3.8220    -1.0520     0.2580 h4         1 7AG       0.199000
     46 H13          1.6820    -0.3310    -3.0980 h1         1 7AG       0.070700
     47 H14          1.7750    -1.6080    -1.8990 h1         1 7AG       0.070700
     48 H15          0.3570     0.9400    -1.7010 hn         1 7AG       0.318500
     49 H16         -0.6380     0.4420     1.6350 hc         1 7AG       0.060700
     50 H17         -0.6380     1.5750     0.2890 hc         1 7AG       0.060700
     51 H18         -2.1760     0.0870    -0.9880 hc         1 7AG       0.067200
     52 H19         -2.1380    -1.0910     0.3100 hc         1 7AG       0.067200
     53 H20         -3.1170     0.5930     1.8790 hc         1 7AG       0.058700
     54 H21         -3.1320     1.7880     0.6080 hc         1 7AG       0.058700
     55 H22         -5.2930     1.9080     1.2490 hn         1 7AG       0.313500
     56 H23         -7.0170    -0.9830    -0.3530 ha         1 7AG       0.189000
     57 H24         -7.2820     2.8300     1.5970 ha         1 7AG       0.128000
     58 H25         -9.7220     2.7430     1.4200 ha         1 7AG       0.133000
     59 H26        -10.8370     0.8200     0.3750 ha         1 7AG       0.131000
     60 H27        -11.3620    -1.2090     0.3410 hn         1 7AG       0.314000
     61 H28        -11.3190    -2.4870    -0.8010 hn         1 7AG       0.314000
@<TRIPOS>BOND
     1     1     2 ar  
     2     1     6 ar  
     3     1    34 1   
     4     2     3 ar  
     5     2    35 1   
     6     3     4 ar  
     7     3    36 1   
     8     4     5 ar  
     9     4    37 1   
    10     5     6 ar  
    11     5    38 1   
    12     6     7 1   
    13     7     8 1   
    14     7     9 1   
    15     7    39 1   
    16     8    40 1   
    17     8    41 1   
    18     8    42 1   
    19     9    10 1   
    20     9    43 1   
    21     9    44 1   
    22    10    11 1   
    23    10    12 1   
    24    11    14 2   
    25    11    45 1   
    26    12    13 2   
    27    13    14 1   
    28    14    15 1   
    29    15    16 1   
    30    15    46 1   
    31    15    47 1   
    32    16    17 1   
    33    16    48 1   
    34    17    18 2   
    35    17    19 1   
    36    19    20 1   
    37    19    49 1   
    38    19    50 1   
    39    20    21 1   
    40    20    51 1   
    41    20    52 1   
    42    21    22 1   
    43    21    53 1   
    44    21    54 1   
    45    22    23 2   
    46    22    24 1   
    47    24    25 1   
    48    24    55 1   
    49    25    26 ar  
    50    25    27 ar  
    51    26    30 ar  
    52    26    56 1   
    53    27    28 ar  
    54    27    57 1   
    55    28    29 ar  
    56    28    58 1   
    57    29    30 ar  
    58    29    59 1   
    59    30    31 1   
    60    31    32 2   
    61    31    33 1   
    62    33    60 1   
    63    33    61 1   
@<TRIPOS>SUBSTRUCTURE
     1 7AG         1 TEMP              0 ****  ****    0 ROOT
