@<TRIPOS>MOLECULE
7AG
   61    63     1     0     0
SMALL
No Charge or Current Charge


@<TRIPOS>ATOM
      1 CAY          9.8180     0.2900    -0.1070 ca         1 7AG      -0.103500
      2 CAZ         10.9750     0.1480     0.6790 ca         1 7AG      -0.108500
      3 CBG         10.9420    -0.6290     1.8480 ca         1 7AG      -0.106000
      4 CBF          9.7500    -1.2650     2.2310 ca         1 7AG      -0.108500
      5 CBE          8.5920    -1.1240     1.4460 ca         1 7AG      -0.103500
      6 CAX          8.6170    -0.3450     0.2700 ca         1 7AG      -0.087300
      7 CAW          7.3600    -0.1830    -0.5890 c3         1 7AG      -0.030400
      8 CAE          6.8960    -1.5460    -1.1570 c3         1 7AG      -0.090100
      9 CAV          6.2450     0.5480     0.2030 c3         1 7AG       0.082600
     10 NAU          5.0630     0.8950    -0.6030 na         1 7AG       0.124800
     11 CAT          3.8830     0.2020    -0.6930 cc         1 7AG      -0.177000
     12 NAD          5.0440     2.0180    -1.3760 nc         1 7AG      -0.211800
     13 NAC          3.8750     2.0500    -1.9590 nd         1 7AG      -0.362000
     14 CAS          3.1410     0.9500    -1.5620 cd         1 7AG       0.158300
     15 CAR          1.7370     0.6880    -2.0510 c3         1 7AG       0.088700
     16 NAQ          0.7160     1.0410    -1.0550 ns         1 7AG      -0.500900
     17 CAP          0.3140     0.2230    -0.0240 c          1 7AG       0.602100
     18 OAB          0.7870    -0.8910     0.1470 o          1 7AG      -0.610100
     19 CAO         -0.7390     0.8240     0.9120 c3         1 7AG      -0.165400
     20 CAN         -2.1280     0.1740     0.6990 c3         1 7AG      -0.059400
     21 CAM         -3.2150     0.7590     1.6330 c3         1 7AG      -0.161400
     22 CAL         -4.5810     0.0960     1.4010 c          1 7AG       0.605100
     23 OBD         -4.8100    -1.0420     1.7900 o          1 7AG      -0.561100
     24 NAK         -5.5080     0.9080     0.7600 ns         1 7AG      -0.151000
     25 CAJ         -6.8560     0.6950     0.3580 ca         1 7AG      -0.023000
     26 CAI         -7.5280    -0.5430     0.4880 ca         1 7AG      -0.084000
     27 CBC         -7.5410     1.7850    -0.2050 ca         1 7AG      -0.153000
     28 CBB         -8.8710     1.6520    -0.6280 ca         1 7AG      -0.090000
     29 CBA         -9.5350     0.4230    -0.4940 ca         1 7AG      -0.117000
     30 CAH         -8.8700    -0.6940     0.0660 ca         1 7AG      -0.123600
     31 CAG         -9.5550    -2.0380     0.2230 c          1 7AG       0.613700
     32 OAF         -8.9970    -3.0120     0.7020 o          1 7AG      -0.594100
     33 NAA        -10.8370    -2.1570    -0.1870 nt         1 7AG      -0.606000
     34 H1           9.8590     0.8960    -1.0090 ha         1 7AG       0.113000
     35 H2          11.8980     0.6420     0.3800 ha         1 7AG       0.114500
     36 H3          11.8380    -0.7390     2.4550 ha         1 7AG       0.114000
     37 H4           9.7220    -1.8680     3.1360 ha         1 7AG       0.114500
     38 H5           7.6770    -1.6230     1.7560 ha         1 7AG       0.113000
     39 H6           7.6050     0.4510    -1.4510 hc         1 7AG       0.075700
     40 H7           6.0800    -1.4140    -1.8780 hc         1 7AG       0.042033
     41 H8           7.7230    -2.0450    -1.6760 hc         1 7AG       0.042033
     42 H9           6.5430    -2.2090    -0.3580 hc         1 7AG       0.042033
     43 H10          5.9190    -0.0770     1.0430 h1         1 7AG       0.071200
     44 H11          6.6540     1.4750     0.6240 h1         1 7AG       0.071200
     45 H12          3.6720    -0.7170    -0.1630 h4         1 7AG       0.181000
     46 H13          1.5570     1.2720    -2.9630 h1         1 7AG       0.070700
     47 H14          1.6400    -0.3740    -2.3130 h1         1 7AG       0.070700
     48 H15          0.2810     1.9550    -1.1100 hn         1 7AG       0.318500
     49 H16         -0.4270     0.6450     1.9480 hc         1 7AG       0.060700
     50 H17         -0.8280     1.9020     0.7340 hc         1 7AG       0.060700
     51 H18         -2.4350     0.3120    -0.3470 hc         1 7AG       0.067200
     52 H19         -2.0500    -0.9090     0.8660 hc         1 7AG       0.067200
     53 H20         -2.9130     0.5800     2.6720 hc         1 7AG       0.058700
     54 H21         -3.2870     1.8390     1.4510 hc         1 7AG       0.058700
     55 H22         -5.1570     1.8290     0.5280 hn         1 7AG       0.147000
     56 H23         -7.0190    -1.4030     0.9110 ha         1 7AG       0.171000
     57 H24         -7.0400     2.7450    -0.3170 ha         1 7AG       0.110000
     58 H25         -9.3910     2.5040    -1.0610 ha         1 7AG       0.115000
     59 H26        -10.5660     0.3540    -0.8310 ha         1 7AG       0.113000
     60 H27        -11.3180    -1.3650    -0.5860 hn         1 7AG       0.314000
     61 H28        -11.3050    -3.0450    -0.0880 hn         1 7AG       0.314000
@<TRIPOS>BOND
     1     1     2 ar  
     2     1     6 ar  
     3     1    34 1   
     4     2     3 ar  
     5     2    35 1   
     6     3     4 ar  
     7     3    36 1   
     8     4     5 ar  
     9     4    37 1   
    10     5     6 ar  
    11     5    38 1   
    12     6     7 1   
    13     7     8 1   
    14     7     9 1   
    15     7    39 1   
    16     8    40 1   
    17     8    41 1   
    18     8    42 1   
    19     9    10 1   
    20     9    43 1   
    21     9    44 1   
    22    10    11 1   
    23    10    12 1   
    24    11    14 2   
    25    11    45 1   
    26    12    13 2   
    27    13    14 1   
    28    14    15 1   
    29    15    16 1   
    30    15    46 1   
    31    15    47 1   
    32    16    17 1   
    33    16    48 1   
    34    17    18 2   
    35    17    19 1   
    36    19    20 1   
    37    19    49 1   
    38    19    50 1   
    39    20    21 1   
    40    20    51 1   
    41    20    52 1   
    42    21    22 1   
    43    21    53 1   
    44    21    54 1   
    45    22    23 2   
    46    22    24 1   
    47    24    25 1   
    48    24    55 1   
    49    25    26 ar  
    50    25    27 ar  
    51    26    30 ar  
    52    26    56 1   
    53    27    28 ar  
    54    27    57 1   
    55    28    29 ar  
    56    28    58 1   
    57    29    30 ar  
    58    29    59 1   
    59    30    31 1   
    60    31    32 2   
    61    31    33 1   
    62    33    60 1   
    63    33    61 1   
@<TRIPOS>SUBSTRUCTURE
     1 7AG         1 TEMP              0 ****  ****    0 ROOT
