@<TRIPOS>MOLECULE
7AH
   48    51     1     0     0
SMALL
No Charge or Current Charge


@<TRIPOS>ATOM
      1 O            2.8370    -1.0530     2.1680 o          1 7AH      -0.571100
      2 C5           2.3660    -0.0250     1.6940 c          1 7AH       0.602100
      3 C4           3.1970     1.2610     1.5840 c3         1 7AH      -0.113100
      4 C3           4.1480     1.1900     0.3920 ca         1 7AH      -0.086300
      5 C2           3.7350     1.6520    -0.8740 ca         1 7AH      -0.067500
      6 C1           4.6100     1.5810    -1.9720 ca         1 7AH      -0.150500
      7 C19          5.4420     0.6550     0.5490 ca         1 7AH      -0.067500
      8 C20          6.3160     0.5850    -0.5510 ca         1 7AH      -0.150500
      9 C            5.8980     1.0480    -1.8070 ca         1 7AH       0.175000
     10 F            6.7380     0.9800    -2.8630 f          1 7AH      -0.180000
     11 N            1.0710     0.0910     1.2010 ns         1 7AH      -0.158000
     12 C6          -0.0080    -0.8330     1.1030 ca         1 7AH      -0.063000
     13 C18         -1.2020    -0.3730     0.5020 ca         1 7AH      -0.105000
     14 C17         -2.2850    -1.2560     0.3930 ca         1 7AH      -0.077800
     15 C9          -2.2110    -2.5420     0.8420 ca         1 7AH      -0.059200
     16 C8          -1.0490    -3.0380     1.4430 ca         1 7AH      -0.111000
     17 C7           0.0590    -2.1740     1.5750 ca         1 7AH      -0.087000
     18 C11         -3.5910    -1.0530    -0.1700 cc         1 7AH      -0.137400
     19 C10         -4.2520    -2.2750    -0.0260 cd         1 7AH      -0.150100
     20 N1          -3.3970    -3.2100     0.6070 na         1 7AH      -0.221700
     21 C12         -4.1810     0.2060    -0.7820 c6         1 7AH       0.013500
     22 C16         -5.5040    -0.0510    -1.5550 c6         1 7AH      -0.071400
     23 C15         -6.0790     1.2720    -2.1190 c6         1 7AH       0.158300
     24 N2          -6.2840     2.2690    -1.0410 n7         1 7AH      -0.860400
     25 C14         -5.0420     2.5620    -0.2840 c6         1 7AH       0.158300
     26 C13         -4.4270     1.2730     0.3170 c6         1 7AH      -0.071400
     27 H41C         2.5300     2.1220     1.4570 hc         1 7AH       0.064200
     28 H42C         3.7740     1.3850     2.5070 hc         1 7AH       0.064200
     29 H            0.8520     1.0090     0.8370 hn         1 7AH       0.146000
     30 H2           2.7380     2.0660    -1.0090 ha         1 7AH       0.116000
     31 H19          5.7700     0.2910     1.5200 ha         1 7AH       0.116000
     32 H1           4.2930     1.9370    -2.9490 ha         1 7AH       0.131500
     33 H20          7.3140     0.1720    -0.4310 ha         1 7AH       0.131500
     34 H18         -1.2810     0.6450     0.1280 ha         1 7AH       0.112000
     35 H7           0.9560    -2.5640     2.0440 ha         1 7AH       0.134000
     36 H8          -0.9980    -4.0640     1.7990 ha         1 7AH       0.117000
     37 HA          -3.6110    -4.1750     0.8420 hn         1 7AH       0.351000
     38 H10         -5.2620    -2.5490    -0.3170 h4         1 7AH       0.214000
     39 H12         -3.4510     0.6160    -1.4950 hc         1 7AH       0.044700
     40 H161        -5.3310    -0.7580    -2.3780 hc         1 7AH       0.048200
     41 H162        -6.2520    -0.5070    -0.8930 hc         1 7AH       0.048200
     42 H131        -5.1010     0.8690     1.0850 hc         1 7AH       0.048200
     43 H132        -3.4880     1.5220     0.8270 hc         1 7AH       0.048200
     44 H151        -5.3870     1.6820    -2.8700 h1         1 7AH       0.027450
     45 H152        -7.0370     1.0730    -2.6210 h1         1 7AH       0.027450
     46 HB          -6.6320     3.1430    -1.4580 hn         1 7AH       0.408000
     47 H141        -4.3110     3.0350    -0.9560 h1         1 7AH       0.027450
     48 H142        -5.2640     3.2760     0.5220 h1         1 7AH       0.027450
@<TRIPOS>BOND
     1     1     2 2   
     2     2     3 1   
     3     2    11 1   
     4     3     4 1   
     5     3    27 1   
     6     3    28 1   
     7     4     5 ar  
     8     4     7 ar  
     9     5     6 ar  
    10     5    30 1   
    11     6     9 ar  
    12     6    32 1   
    13     7     8 ar  
    14     7    31 1   
    15     8     9 ar  
    16     8    33 1   
    17     9    10 1   
    18    11    12 1   
    19    11    29 1   
    20    12    13 ar  
    21    12    17 ar  
    22    13    14 ar  
    23    13    34 1   
    24    14    15 ar  
    25    14    18 1   
    26    15    16 ar  
    27    15    20 1   
    28    16    17 ar  
    29    16    36 1   
    30    17    35 1   
    31    18    19 2   
    32    18    21 1   
    33    19    20 1   
    34    19    38 1   
    35    20    37 1   
    36    21    22 1   
    37    21    26 1   
    38    21    39 1   
    39    22    23 1   
    40    22    40 1   
    41    22    41 1   
    42    23    24 1   
    43    23    44 1   
    44    23    45 1   
    45    24    25 1   
    46    24    46 1   
    47    25    26 1   
    48    25    47 1   
    49    25    48 1   
    50    26    42 1   
    51    26    43 1   
@<TRIPOS>SUBSTRUCTURE
     1 7AH         1 TEMP              0 ****  ****    0 ROOT
