@<TRIPOS>MOLECULE
7AH
   48    51     1     0     0
SMALL
abcg2


@<TRIPOS>ATOM
      1 O            2.5520    -0.6170     0.8300 o          1 7AH      -0.571100
      2 C5           2.1860     0.1790    -0.0150 c          1 7AH       0.602100
      3 C4           3.0500     1.3470    -0.4650 c3         1 7AH      -0.113100
      4 C3           4.5130     1.0790    -0.2790 ca         1 7AH      -0.086300
      5 C2           5.2430     0.4270    -1.2690 ca         1 7AH      -0.067500
      6 C1           6.5950     0.1610    -1.1100 ca         1 7AH      -0.150500
      7 C19          5.1690     1.4590     0.8870 ca         1 7AH      -0.067500
      8 C20          6.5210     1.2060     1.0680 ca         1 7AH      -0.150500
      9 C            7.2110     0.5580     0.0620 ca         1 7AH       0.175000
     10 F            8.5220     0.3130     0.2250 f          1 7AH      -0.180000
     11 N            0.9780     0.1360    -0.6240 ns         1 7AH      -0.158000
     12 C6          -0.0860    -0.7400    -0.3200 ca         1 7AH      -0.063000
     13 C18         -1.3710    -0.2260    -0.3030 ca         1 7AH      -0.105000
     14 C17         -2.4480    -1.0840    -0.0620 ca         1 7AH      -0.077800
     15 C9          -2.1950    -2.4520     0.1820 ca         1 7AH      -0.059200
     16 C8          -0.9030    -2.9720     0.1660 ca         1 7AH      -0.111000
     17 C7           0.1440    -2.1110    -0.0940 ca         1 7AH      -0.087000
     18 C11         -3.8670    -0.8940    -0.0010 cc         1 7AH      -0.137400
     19 C10         -4.3950    -2.1260     0.2760 cd         1 7AH      -0.150100
     20 N1          -3.3990    -3.0550     0.3890 na         1 7AH      -0.221700
     21 C12         -4.6020     0.3980    -0.1740 c6         1 7AH       0.013500
     22 C16         -5.8880     0.2480    -0.9890 c6         1 7AH      -0.071400
     23 C15         -6.5960     1.5880    -1.1250 c6         1 7AH       0.158300
     24 N2          -6.8900     2.1300     0.1900 n7         1 7AH      -0.860400
     25 C14         -5.6770     2.3750     0.9500 c6         1 7AH       0.158300
     26 C13         -4.9240     1.0700     1.1670 c6         1 7AH      -0.071400
     27 H41C         2.8340     1.5960    -1.5060 hc         1 7AH       0.064200
     28 H42C         2.7440     2.2160     0.1250 hc         1 7AH       0.064200
     29 H            0.7580     0.8950    -1.2500 hn         1 7AH       0.146000
     30 H2           4.7530     0.1210    -2.1860 ha         1 7AH       0.116000
     31 H19          4.6220     1.9710     1.6690 ha         1 7AH       0.116000
     32 H1           7.1580    -0.3440    -1.8840 ha         1 7AH       0.131500
     33 H20          7.0280     1.5110     1.9740 ha         1 7AH       0.131500
     34 H18         -1.5320     0.8320    -0.4810 ha         1 7AH       0.112000
     35 H7           1.1490    -2.5030    -0.1370 ha         1 7AH       0.134000
     36 H8          -0.7180    -4.0250     0.3360 ha         1 7AH       0.117000
     37 HA          -3.5450    -4.0360     0.5570 hn         1 7AH       0.351000
     38 H10         -5.4250    -2.4200     0.4050 h4         1 7AH       0.214000
     39 H12         -3.9490     1.0850    -0.7300 hc         1 7AH       0.044700
     40 H161        -5.6610    -0.1530    -1.9800 hc         1 7AH       0.048200
     41 H162        -6.5610    -0.4620    -0.4990 hc         1 7AH       0.048200
     42 H131        -5.5340     0.3920     1.7720 hc         1 7AH       0.048200
     43 H132        -4.0030     1.2630     1.7240 hc         1 7AH       0.048200
     44 H151        -5.9580     2.2620    -1.7220 h1         1 7AH       0.027450
     45 H152        -7.5310     1.4650    -1.6750 h1         1 7AH       0.027450
     46 HB          -7.4010     2.9970     0.0870 hn         1 7AH       0.408000
     47 H141        -5.0030     3.0900     0.4470 h1         1 7AH       0.027450
     48 H142        -5.9450     2.8170     1.9120 h1         1 7AH       0.027450
@<TRIPOS>BOND
     1     1     2 2   
     2     2     3 1   
     3     2    11 1   
     4     3     4 1   
     5     3    27 1   
     6     3    28 1   
     7     4     5 ar  
     8     4     7 ar  
     9     5     6 ar  
    10     5    30 1   
    11     6     9 ar  
    12     6    32 1   
    13     7     8 ar  
    14     7    31 1   
    15     8     9 ar  
    16     8    33 1   
    17     9    10 1   
    18    11    12 1   
    19    11    29 1   
    20    12    13 ar  
    21    12    17 ar  
    22    13    14 ar  
    23    13    34 1   
    24    14    15 ar  
    25    14    18 1   
    26    15    16 ar  
    27    15    20 1   
    28    16    17 ar  
    29    16    36 1   
    30    17    35 1   
    31    18    19 2   
    32    18    21 1   
    33    19    20 1   
    34    19    38 1   
    35    20    37 1   
    36    21    22 1   
    37    21    26 1   
    38    21    39 1   
    39    22    23 1   
    40    22    40 1   
    41    22    41 1   
    42    23    24 1   
    43    23    44 1   
    44    23    45 1   
    45    24    25 1   
    46    24    46 1   
    47    25    26 1   
    48    25    47 1   
    49    25    48 1   
    50    26    42 1   
    51    26    43 1   
@<TRIPOS>SUBSTRUCTURE
     1 7AH         1 TEMP              0 ****  ****    0 ROOT
