@<TRIPOS>MOLECULE
7AJ
   60    64     1     0     0
SMALL
abcg2


@<TRIPOS>ATOM
      1 CBA        -23.1770   -32.4600   -16.1770 c6         1 7AJ       0.171800
      2 CBB        -23.4040   -31.4650   -17.3030 c6         1 7AJ       0.160800
      3 NBC        -22.6190   -30.2530   -17.0840 n3         1 7AJ      -0.721600
      4 CBF        -22.7880   -29.3070   -18.1760 c3         1 7AJ       0.151100
      5 CBD        -22.9640   -29.6520   -15.7990 c6         1 7AJ       0.160800
      6 CBE        -22.7380   -30.6400   -14.6660 c6         1 7AJ       0.171800
      7 NAZ        -23.5190   -31.8500   -14.8970 n3         1 7AJ      -0.734600
      8 CAY        -23.5410   -32.7750   -13.7790 c3         1 7AJ       0.155800
      9 CAX        -22.1810   -33.3710   -13.3630 c3         1 7AJ       0.035600
     10 NAM        -22.3530   -34.4150   -12.3700 na         1 7AJ      -0.078700
     11 CAL        -22.2980   -34.2440   -11.0150 cc         1 7AJ      -0.147100
     12 CAO        -22.7460   -35.7130   -12.6380 ca         1 7AJ      -0.048200
     13 CAP        -22.9400   -36.3390   -13.8730 ca         1 7AJ      -0.191000
     14 CAQ        -23.3140   -37.6710   -13.8710 ca         1 7AJ       0.138100
     15 OAU        -23.5460   -38.4000   -14.9970 os         1 7AJ      -0.324100
     16 CAV        -23.4100   -37.7400   -16.2530 c3         1 7AJ       0.144900
     17 CAR        -23.4810   -38.3760   -12.6410 ca         1 7AJ       0.098100
     18 OAT        -23.8360   -39.6880   -12.7720 os         1 7AJ      -0.330100
     19 CAW        -24.0340   -40.4410   -11.5800 c3         1 7AJ       0.143900
     20 CAS        -23.2880   -37.7400   -11.4290 ca         1 7AJ      -0.127000
     21 CAN        -22.9240   -36.3820   -11.4110 ca         1 7AJ      -0.063800
     22 CAK        -22.6350   -35.4230   -10.3700 cd         1 7AJ      -0.099200
     23 CAH        -22.6900   -35.6190    -8.9450 cd         1 7AJ       0.054900
     24 CAI        -23.2650   -36.6330    -8.1980 cc         1 7AJ      -0.223200
     25 CAE        -23.0500   -36.3240    -6.8260 ca         1 7AJ      -0.121800
     26 CAD        -23.3550   -36.8850    -5.5910 ca         1 7AJ       0.196000
     27 CLJ        -24.2480   -38.3830    -5.5080 cl         1 7AJ      -0.203000
     28 CAA        -22.9450   -36.2450    -4.4300 ca         1 7AJ      -0.186000
     29 CAB        -22.2330   -35.0470    -4.5310 ca         1 7AJ       0.355900
     30 NAC        -21.9160   -34.4560    -5.6910 nb         1 7AJ      -0.682000
     31 CAF        -22.3260   -35.0940    -6.7770 ca         1 7AJ       0.378500
     32 NAG        -22.1300   -34.6960    -8.0710 na         1 7AJ      -0.338400
     33 H1         -23.8110   -33.3370   -16.3270 h1         1 7AJ       0.037450
     34 H2         -22.1280   -32.7940   -16.2120 h1         1 7AJ       0.037450
     35 H3         -24.4810   -31.2300   -17.3680 h1         1 7AJ       0.040950
     36 H4         -23.1020   -31.9100   -18.2530 h1         1 7AJ       0.040950
     37 H6         -22.1590   -28.4310   -18.0060 h1         1 7AJ       0.033033
     38 H7         -22.4890   -29.7730   -19.1160 h1         1 7AJ       0.033033
     39 H8         -23.8320   -28.9650   -18.2780 h1         1 7AJ       0.033033
     40 H9         -22.3400   -28.7680   -15.6460 h1         1 7AJ       0.040950
     41 H10        -24.0190   -29.3240   -15.7880 h1         1 7AJ       0.040950
     42 H11        -21.6590   -30.8520   -14.5930 h1         1 7AJ       0.037450
     43 H12        -23.0540   -30.1940   -13.7200 h1         1 7AJ       0.037450
     44 H14        -23.9670   -32.2630   -12.9120 h1         1 7AJ       0.065200
     45 H15        -24.2130   -33.5980   -14.0350 h1         1 7AJ       0.065200
     46 H16        -21.6650   -33.7980   -14.2230 h1         1 7AJ       0.062200
     47 H17        -21.5350   -32.6070   -12.9350 h1         1 7AJ       0.062200
     48 H18        -22.0290   -33.2840   -10.6050 h4         1 7AJ       0.211000
     49 H19        -22.8070   -35.7980   -14.7960 ha         1 7AJ       0.121000
     50 H20        -23.6470   -38.4840   -17.0090 h1         1 7AJ       0.040700
     51 H21        -24.1050   -36.9000   -16.3320 h1         1 7AJ       0.040700
     52 H22        -22.3890   -37.3790   -16.4000 h1         1 7AJ       0.040700
     53 H23        -24.3140   -41.4410   -11.9020 h1         1 7AJ       0.041700
     54 H24        -23.1170   -40.4910   -10.9860 h1         1 7AJ       0.041700
     55 H25        -24.8350   -40.0130   -10.9710 h1         1 7AJ       0.041700
     56 H26        -23.4070   -38.2880   -10.5090 ha         1 7AJ       0.129000
     57 H27        -23.8080   -37.4780    -8.5830 ha         1 7AJ       0.212000
     58 H28        -23.1690   -36.6620    -3.4590 ha         1 7AJ       0.135000
     59 H29        -21.9080   -34.5440    -3.6280 h4         1 7AJ       0.023100
     60 H30        -21.5960   -33.8850    -8.3390 hn         1 7AJ       0.356000
@<TRIPOS>BOND
     1     1     2 1   
     2     1     7 1   
     3     1    33 1   
     4     1    34 1   
     5     2     3 1   
     6     2    35 1   
     7     2    36 1   
     8     3     4 1   
     9     3     5 1   
    10     4    37 1   
    11     4    38 1   
    12     4    39 1   
    13     5     6 1   
    14     5    40 1   
    15     5    41 1   
    16     6     7 1   
    17     6    42 1   
    18     6    43 1   
    19     7     8 1   
    20     8     9 1   
    21     8    44 1   
    22     8    45 1   
    23     9    10 1   
    24     9    46 1   
    25     9    47 1   
    26    10    11 1   
    27    10    12 1   
    28    11    22 2   
    29    11    48 1   
    30    12    13 ar  
    31    12    21 ar  
    32    13    14 ar  
    33    13    49 1   
    34    14    15 1   
    35    14    17 ar  
    36    15    16 1   
    37    16    50 1   
    38    16    51 1   
    39    16    52 1   
    40    17    18 1   
    41    17    20 ar  
    42    18    19 1   
    43    19    53 1   
    44    19    54 1   
    45    19    55 1   
    46    20    21 ar  
    47    20    56 1   
    48    21    22 1   
    49    22    23 1   
    50    23    24 2   
    51    23    32 1   
    52    24    25 1   
    53    24    57 1   
    54    25    26 ar  
    55    25    31 ar  
    56    26    27 1   
    57    26    28 ar  
    58    28    29 ar  
    59    28    58 1   
    60    29    30 ar  
    61    29    59 1   
    62    30    31 ar  
    63    31    32 1   
    64    32    60 1   
@<TRIPOS>SUBSTRUCTURE
     1 7AJ         1 TEMP              0 ****  ****    0 ROOT
