@<TRIPOS>MOLECULE
7AJ
   60    64     1     0     0
SMALL
No Charge or Current Charge


@<TRIPOS>ATOM
      1 CBA        -23.1000   -32.4380   -16.2810 c6         1 7AJ       0.171800
      2 CBB        -23.1260   -31.3970   -17.4460 c6         1 7AJ       0.160800
      3 NBC        -22.4140   -30.1290   -17.0940 n3         1 7AJ      -0.721600
      4 CBF        -22.4110   -29.1480   -18.2000 c3         1 7AJ       0.151100
      5 CBD        -22.9670   -29.5670   -15.8230 c6         1 7AJ       0.160800
      6 CBE        -22.9420   -30.6030   -14.6520 c6         1 7AJ       0.171800
      7 NAZ        -23.6490   -31.8730   -15.0080 n3         1 7AJ      -0.734600
      8 CAY        -23.7440   -32.8550   -13.8930 c3         1 7AJ       0.155800
      9 CAX        -22.3980   -33.4160   -13.3690 c3         1 7AJ       0.035600
     10 NAM        -22.5750   -34.4190   -12.3060 na         1 7AJ      -0.078700
     11 CAL        -22.4540   -34.2080   -10.9230 cc         1 7AJ      -0.147100
     12 CAO        -22.9120   -35.7390   -12.5740 ca         1 7AJ      -0.048200
     13 CAP        -23.1290   -36.3570   -13.8150 ca         1 7AJ      -0.191000
     14 CAQ        -23.4700   -37.7320   -13.8310 ca         1 7AJ       0.138100
     15 OAU        -23.6990   -38.4080   -15.0190 os         1 7AJ      -0.324100
     16 CAV        -23.6130   -37.7640   -16.3020 c3         1 7AJ       0.144900
     17 CAR        -23.5840   -38.4510   -12.6070 ca         1 7AJ       0.098100
     18 OAT        -23.9190   -39.7960   -12.6630 os         1 7AJ      -0.330100
     19 CAW        -24.0590   -40.6100   -11.4850 c3         1 7AJ       0.143900
     20 CAS        -23.3570   -37.7920   -11.3710 ca         1 7AJ      -0.127000
     21 CAN        -23.0220   -36.4270   -11.3920 ca         1 7AJ      -0.063800
     22 CAK        -22.7290   -35.4470   -10.3510 cd         1 7AJ      -0.099200
     23 CAH        -22.6810   -35.5480    -8.9060 cd         1 7AJ       0.054900
     24 CAI        -22.9210   -36.6840    -8.1520 cc         1 7AJ      -0.223200
     25 CAE        -22.7550   -36.2830    -6.7850 ca         1 7AJ      -0.121800
     26 CAD        -22.8770   -37.0240    -5.6060 ca         1 7AJ       0.196000
     27 ClJ        -23.2960   -38.7340    -5.6230 cl         1 7AJ      -0.203000
     28 CAA        -22.6500   -36.3440    -4.4010 ca         1 7AJ      -0.186000
     29 CAB        -22.3180   -34.9770    -4.4480 ca         1 7AJ       0.355900
     30 NAC        -22.2050   -34.2780    -5.6070 nb         1 7AJ      -0.682000
     31 CAF        -22.4260   -34.9480    -6.7540 ca         1 7AJ       0.378500
     32 NAG        -22.3740   -34.4690    -8.0470 na         1 7AJ      -0.338400
     33 H1         -23.6790   -33.3220   -16.5850 h1         1 7AJ       0.037450
     34 H2         -22.0610   -32.7660   -16.1370 h1         1 7AJ       0.037450
     35 H3         -24.1750   -31.1840   -17.6990 h1         1 7AJ       0.040950
     36 H4         -22.6690   -31.8560   -18.3360 h1         1 7AJ       0.040950
     37 H6         -21.8370   -28.2530   -17.9230 h1         1 7AJ       0.033033
     38 H7         -21.9520   -29.5790   -19.1000 h1         1 7AJ       0.033033
     39 H8         -23.4340   -28.8360   -18.4520 h1         1 7AJ       0.033033
     40 H9         -22.3930   -28.6790   -15.5170 h1         1 7AJ       0.040950
     41 H10        -24.0060   -29.2390   -15.9750 h1         1 7AJ       0.040950
     42 H11        -21.8920   -30.8080   -14.3980 h1         1 7AJ       0.037450
     43 H12        -23.4050   -30.1440   -13.7660 h1         1 7AJ       0.037450
     44 H14        -24.2690   -32.3950   -13.0440 h1         1 7AJ       0.065200
     45 H15        -24.3650   -33.7040   -14.2120 h1         1 7AJ       0.065200
     46 H16        -21.8350   -33.8730   -14.1910 h1         1 7AJ       0.062200
     47 H17        -21.7920   -32.5940   -12.9690 h1         1 7AJ       0.062200
     48 H18        -22.1980   -33.2450   -10.4960 h4         1 7AJ       0.211000
     49 H19        -23.0350   -35.7850   -14.7320 ha         1 7AJ       0.121000
     50 H20        -23.8340   -38.4820   -17.1020 h1         1 7AJ       0.040700
     51 H21        -24.3350   -36.9410   -16.3750 h1         1 7AJ       0.040700
     52 H22        -22.6040   -37.3660   -16.4720 h1         1 7AJ       0.040700
     53 H23        -24.3260   -41.6370   -11.7630 h1         1 7AJ       0.041700
     54 H24        -23.1180   -40.6460   -10.9210 h1         1 7AJ       0.041700
     55 H25        -24.8480   -40.2190   -10.8310 h1         1 7AJ       0.041700
     56 H26        -23.4420   -38.3290   -10.4390 ha         1 7AJ       0.129000
     57 H27        -23.1810   -37.6720    -8.5040 ha         1 7AJ       0.212000
     58 H28        -22.7280   -36.8580    -3.4490 ha         1 7AJ       0.135000
     59 H29        -22.1350   -34.4210    -3.5290 h4         1 7AJ       0.023100
     60 H30        -22.1550   -33.5210    -8.3120 hn         1 7AJ       0.356000
@<TRIPOS>BOND
     1     1     2 1   
     2     1     7 1   
     3     1    33 1   
     4     1    34 1   
     5     2     3 1   
     6     2    35 1   
     7     2    36 1   
     8     3     4 1   
     9     3     5 1   
    10     4    37 1   
    11     4    38 1   
    12     4    39 1   
    13     5     6 1   
    14     5    40 1   
    15     5    41 1   
    16     6     7 1   
    17     6    42 1   
    18     6    43 1   
    19     7     8 1   
    20     8     9 1   
    21     8    44 1   
    22     8    45 1   
    23     9    10 1   
    24     9    46 1   
    25     9    47 1   
    26    10    11 1   
    27    10    12 1   
    28    11    22 2   
    29    11    48 1   
    30    12    13 ar  
    31    12    21 ar  
    32    13    14 ar  
    33    13    49 1   
    34    14    15 1   
    35    14    17 ar  
    36    15    16 1   
    37    16    50 1   
    38    16    51 1   
    39    16    52 1   
    40    17    18 1   
    41    17    20 ar  
    42    18    19 1   
    43    19    53 1   
    44    19    54 1   
    45    19    55 1   
    46    20    21 ar  
    47    20    56 1   
    48    21    22 1   
    49    22    23 1   
    50    23    24 2   
    51    23    32 1   
    52    24    25 1   
    53    24    57 1   
    54    25    26 ar  
    55    25    31 ar  
    56    26    27 1   
    57    26    28 ar  
    58    28    29 ar  
    59    28    58 1   
    60    29    30 ar  
    61    29    59 1   
    62    30    31 ar  
    63    31    32 1   
    64    32    60 1   
@<TRIPOS>SUBSTRUCTURE
     1 7AJ         1 TEMP              0 ****  ****    0 ROOT
