@<TRIPOS>MOLECULE
7AK
   97    97     1     0     0
SMALL
No Charge or Current Charge


@<TRIPOS>ATOM
      1 C4          -7.4280     0.4120     1.1260 c6         1 7AK      -0.088700
      2 C14          1.1340    -1.3760     1.6250 c2         1 7AK      -0.118400
      3 C5          -6.8850     0.0520    -0.2860 c6         1 7AK       0.213300
      4 C6          -6.3560    -1.4070    -0.3960 c3         1 7AK      -0.120400
      5 C11         -1.8970    -1.9530     0.1620 c3         1 7AK       0.183300
      6 C7          -5.8590    -1.8070    -1.8050 c3         1 7AK       0.204500
      7 C8          -4.9270    -3.0000    -1.7520 c2         1 7AK      -0.261200
      8 C9          -3.6150    -2.9660    -1.4500 c2         1 7AK      -0.170200
      9 C10         -2.7970    -1.7260    -1.0970 c3         1 7AK      -0.068500
     10 C12         -1.1700    -0.6780     0.7040 c3         1 7AK      -0.055500
     11 C13         -0.1640    -1.0490     1.7870 c2         1 7AK      -0.205200
     12 C3          -7.7170     1.9320     1.1940 c6         1 7AK       0.178300
     13 C26         -8.6810    -0.4240     1.5350 c3         1 7AK      -0.083100
     14 O3          -8.7670     2.2880     0.2900 oh         1 7AK      -0.655000
     15 C2          -6.4590     2.7440     0.8380 c6         1 7AK      -0.212700
     16 C25         -5.3980     2.7080     1.9840 c3         1 7AK      -0.082100
     17 C1          -5.7840     2.2560    -0.4560 c          1 7AK       0.690100
     18 O1          -5.0840     3.0040    -1.1240 o          1 7AK      -0.517000
     19 O5          -5.7820     0.9020    -0.6740 os         1 7AK      -0.468100
     20 O7          -6.9790    -2.1210    -2.6330 oh         1 7AK      -0.652000
     21 C27         -1.9940    -1.2760    -2.3400 c3         1 7AK      -0.084100
     22 O11         -2.6830    -2.5340     1.2150 oh         1 7AK      -0.663000
     23 C28         -2.1200     0.4420     1.2070 c3         1 7AK      -0.096100
     24 C29          2.0210    -1.7380     2.8060 c3         1 7AK      -0.057900
     25 C15          1.8570    -1.4700     0.2810 c3         1 7AK      -0.032200
     26 C16          2.8010    -0.2690    -0.0250 c3         1 7AK      -0.095700
     27 C30          2.0230     1.0720    -0.1210 c3         1 7AK      -0.091100
     28 C17          3.7160    -0.5570    -1.2640 c3         1 7AK       0.171300
     29 O17          2.8800    -0.7430    -2.4170 oh         1 7AK      -0.657000
     30 C18          4.8100     0.5210    -1.5880 c3         1 7AK      -0.090700
     31 C31          5.6770     0.0890    -2.8100 c3         1 7AK      -0.082100
     32 C19          5.6830     0.8850    -0.3360 c3         1 7AK       0.200300
     33 O19          6.3170    -0.3380     0.0990 os         1 7AK      -0.468100
     34 C33          6.4200    -0.5960     1.4320 c          1 7AK       0.645100
     35 O33          5.9190     0.0420     2.3410 o          1 7AK      -0.549000
     36 N33          7.0550    -1.7610     1.6140 nt         1 7AK      -0.592000
     37 C20          6.7880     1.9780    -0.5480 c3         1 7AK      -0.050500
     38 C32          6.2120     3.3050    -1.1010 c3         1 7AK      -0.086100
     39 C21          7.5690     2.2720     0.7310 c2         1 7AK      -0.200200
     40 C22          8.7610     1.7620     1.1220 ce         1 7AK      -0.186000
     41 C23          9.5550     0.7720     0.3840 ce         1 7AK      -0.184000
     42 C24         10.7590     0.3360     0.8090 c2         1 7AK      -0.314000
     43 H4          -6.6600     0.1650     1.8710 hc         1 7AK       0.063700
     44 H5          -7.6950     0.1860    -1.0190 h1         1 7AK       0.087700
     45 H62         -5.5320    -1.5280     0.3160 hc         1 7AK       0.061700
     46 H61         -7.1220    -2.1240    -0.0830 hc         1 7AK       0.061700
     47 H11         -1.1150    -2.6670    -0.1300 h1         1 7AK       0.070700
     48 H7          -5.3040    -0.9640    -2.2430 h1         1 7AK       0.091700
     49 H8          -5.3960    -3.9570    -1.9840 ha         1 7AK       0.165000
     50 H9          -3.0390    -3.8940    -1.4410 ha         1 7AK       0.169000
     51 H10         -3.4850    -0.9080    -0.8630 hc         1 7AK       0.060700
     52 H12         -0.6170    -0.2390    -0.1310 hc         1 7AK       0.054700
     53 H1          -0.5890    -1.0380     2.7920 ha         1 7AK       0.176000
     54 H3          -8.0220     2.1840     2.2220 h1         1 7AK       0.043700
     55 H262        -9.4740    -0.3590     0.7800 hc         1 7AK       0.042700
     56 H261        -8.4360    -1.4830     1.6720 hc         1 7AK       0.042700
     57 H263        -9.0970    -0.0680     2.4850 hc         1 7AK       0.042700
     58 HO3         -9.1080     3.1630     0.5810 ho         1 7AK       0.449000
     59 H2          -6.6980     3.8080     0.7060 hc         1 7AK       0.080700
     60 H252        -4.9800     1.7050     2.1320 hc         1 7AK       0.047367
     61 H251        -4.5570     3.3770     1.7620 hc         1 7AK       0.047367
     62 H253        -5.8300     3.0350     2.9380 hc         1 7AK       0.047367
     63 HO7         -7.4070    -2.9120    -2.2430 ho         1 7AK       0.432000
     64 H272        -1.2040    -1.9980    -2.5770 hc         1 7AK       0.037367
     65 H273        -2.6540    -1.1930    -3.2110 hc         1 7AK       0.037367
     66 H271        -1.5320    -0.2940    -2.1860 hc         1 7AK       0.037367
     67 HO11        -3.4550    -1.9450     1.3410 ho         1 7AK       0.450000
     68 H282        -1.5360     1.2930     1.5780 hc         1 7AK       0.040033
     69 H281        -2.7630     0.8160     0.4020 hc         1 7AK       0.040033
     70 H283        -2.7580     0.0910     2.0260 hc         1 7AK       0.040033
     71 H293         2.8570    -1.0370     2.9130 hc         1 7AK       0.042033
     72 H291         1.4650    -1.7230     3.7510 hc         1 7AK       0.042033
     73 H292         2.4410    -2.7450     2.6930 hc         1 7AK       0.042033
     74 H152         2.4410    -2.3990     0.2530 hc         1 7AK       0.048200
     75 H151         1.1370    -1.5710    -0.5390 hc         1 7AK       0.048200
     76 H16          3.4620    -0.1890     0.8440 hc         1 7AK       0.069700
     77 H302         1.3250     1.0690    -0.9660 hc         1 7AK       0.033367
     78 H303         1.4450     1.2520     0.7940 hc         1 7AK       0.033367
     79 H301         2.7040     1.9220    -0.2400 hc         1 7AK       0.033367
     80 H17          4.2500    -1.4960    -1.0560 h1         1 7AK       0.080700
     81 HO17         2.3550     0.0780    -2.5200 ho         1 7AK       0.436000
     82 H18          4.2790     1.4310    -1.8910 hc         1 7AK       0.052700
     83 H313         6.2710    -0.8020    -2.5750 hc         1 7AK       0.039700
     84 H311         5.0550    -0.1420    -3.6820 hc         1 7AK       0.039700
     85 H312         6.3610     0.8860    -3.1190 hc         1 7AK       0.039700
     86 H19          5.0030     1.2750     0.4330 h1         1 7AK       0.076700
     87 H332         7.4200    -2.2510     0.8140 hn         1 7AK       0.324500
     88 H331         7.1880    -2.1150     2.5480 hn         1 7AK       0.324500
     89 H20          7.4880     1.6130    -1.3050 hc         1 7AK       0.064700
     90 H333         7.0000     4.0650    -1.1710 hc         1 7AK       0.038700
     91 H322         5.7960     3.1730    -2.1060 hc         1 7AK       0.038700
     92 H321         5.4210     3.6920    -0.4470 hc         1 7AK       0.038700
     93 H21          7.0710     2.9900     1.3870 ha         1 7AK       0.178000
     94 H22          9.1830     2.0930     2.0740 ha         1 7AK       0.173000
     95 H23          9.1340     0.3700    -0.5390 ha         1 7AK       0.173000
     96 H242        11.2160     0.7040     1.7280 ha         1 7AK       0.162000
     97 H241        11.3270    -0.4060     0.2460 ha         1 7AK       0.162000
@<TRIPOS>BOND
     1     1     3 1   
     2     1    12 1   
     3     1    13 1   
     4     1    43 1   
     5     2    11 2   
     6     2    24 1   
     7     2    25 1   
     8     3     4 1   
     9     3    19 1   
    10     3    44 1   
    11     4     6 1   
    12     4    45 1   
    13     4    46 1   
    14     5     9 1   
    15     5    10 1   
    16     5    22 1   
    17     5    47 1   
    18     6     7 1   
    19     6    20 1   
    20     6    48 1   
    21     7     8 2   
    22     7    49 1   
    23     8     9 1   
    24     8    50 1   
    25     9    21 1   
    26     9    51 1   
    27    10    11 1   
    28    10    23 1   
    29    10    52 1   
    30    11    53 1   
    31    12    14 1   
    32    12    15 1   
    33    12    54 1   
    34    13    55 1   
    35    13    56 1   
    36    13    57 1   
    37    14    58 1   
    38    15    16 1   
    39    15    17 1   
    40    15    59 1   
    41    16    60 1   
    42    16    61 1   
    43    16    62 1   
    44    17    18 2   
    45    17    19 1   
    46    20    63 1   
    47    21    64 1   
    48    21    65 1   
    49    21    66 1   
    50    22    67 1   
    51    23    68 1   
    52    23    69 1   
    53    23    70 1   
    54    24    71 1   
    55    24    72 1   
    56    24    73 1   
    57    25    26 1   
    58    25    74 1   
    59    25    75 1   
    60    26    27 1   
    61    26    28 1   
    62    26    76 1   
    63    27    77 1   
    64    27    78 1   
    65    27    79 1   
    66    28    29 1   
    67    28    30 1   
    68    28    80 1   
    69    29    81 1   
    70    30    31 1   
    71    30    32 1   
    72    30    82 1   
    73    31    83 1   
    74    31    84 1   
    75    31    85 1   
    76    32    33 1   
    77    32    37 1   
    78    32    86 1   
    79    33    34 1   
    80    34    35 2   
    81    34    36 1   
    82    36    87 1   
    83    36    88 1   
    84    37    38 1   
    85    37    39 1   
    86    37    89 1   
    87    38    90 1   
    88    38    91 1   
    89    38    92 1   
    90    39    40 2   
    91    39    93 1   
    92    40    41 1   
    93    40    94 1   
    94    41    42 2   
    95    41    95 1   
    96    42    96 1   
    97    42    97 1   
@<TRIPOS>SUBSTRUCTURE
     1 7AK         1 TEMP              0 ****  ****    0 ROOT
