@<TRIPOS>MOLECULE
7AK
   97    97     1     0     0
SMALL
bcc


@<TRIPOS>ATOM
      1 C4          -7.7950    -0.5300     1.6990 c6         1 7AK      -0.088700
      2 C14          0.7920     0.0580     1.0190 c2         1 7AK      -0.118400
      3 C5          -7.0550    -0.3030     0.3840 c6         1 7AK       0.190100
      4 C6          -6.3060    -1.5360    -0.0940 c3         1 7AK      -0.120400
      5 C11         -2.0180    -0.7720    -0.6580 c3         1 7AK       0.160100
      6 C7          -5.7770    -1.4160    -1.5260 c3         1 7AK       0.181300
      7 C8          -4.7640    -2.4880    -1.7970 c2         1 7AK      -0.211200
      8 C9          -3.4590    -2.3080    -1.9840 c2         1 7AK      -0.120200
      9 C10         -2.7040    -1.0090    -2.0180 c3         1 7AK      -0.068500
     10 C12         -1.1090     0.4730    -0.6140 c3         1 7AK      -0.055500
     11 C13         -0.4130     0.5470     0.7180 c2         1 7AK      -0.155200
     12 C3          -8.0820     0.8030     2.3710 c6         1 7AK       0.155100
     13 C26         -9.0670    -1.3390     1.4680 c3         1 7AK      -0.083100
     14 O3          -8.9030     1.5520     1.5030 oh         1 7AK      -0.592800
     15 C2          -6.7780     1.5410     2.6460 c6         1 7AK      -0.212700
     16 C25         -5.9400     0.8930     3.7540 c3         1 7AK      -0.082100
     17 C1          -5.9360     1.6610     1.4020 c          1 7AK       0.765600
     18 O1          -5.0950     2.5150     1.2620 o          1 7AK      -0.592500
     19 O5          -6.0650     0.7520     0.4440 os         1 7AK      -0.444900
     20 O7          -6.8340    -1.4340    -2.4700 oh         1 7AK      -0.589800
     21 C27         -1.6990    -1.0380    -3.1700 c3         1 7AK      -0.084100
     22 O11         -2.9610    -0.7500     0.3920 oh         1 7AK      -0.600800
     23 C28         -1.8640     1.7720    -0.8950 c3         1 7AK      -0.096100
     24 C29          1.3510     0.1910     2.4080 c3         1 7AK      -0.057900
     25 C15          1.6740    -0.6730     0.0430 c3         1 7AK      -0.032200
     26 C16          2.8950     0.1490    -0.4030 c3         1 7AK      -0.095700
     27 C30          2.4780     1.3800    -1.2030 c3         1 7AK      -0.091100
     28 C17          3.8860    -0.7510    -1.1610 c3         1 7AK       0.148100
     29 O17          3.2720    -1.3500    -2.2870 oh         1 7AK      -0.594800
     30 C18          5.2040    -0.0570    -1.5630 c3         1 7AK      -0.090700
     31 C31          6.1110    -1.0110    -2.3380 c3         1 7AK      -0.082100
     32 C19          5.9080     0.5790    -0.3590 c3         1 7AK       0.177100
     33 O19          6.2350    -0.4670     0.5600 os         1 7AK      -0.444900
     34 C33          6.0000    -0.2990     1.8680 c          1 7AK       0.761100
     35 O33          5.3550     0.6130     2.3430 o          1 7AK      -0.598000
     36 N33          6.5300    -1.3120     2.5760 nt         1 7AK      -0.659000
     37 C20          7.2040     1.3340    -0.7000 c3         1 7AK      -0.050500
     38 C32          6.9400     2.4550    -1.7060 c3         1 7AK      -0.086100
     39 C21          7.7980     1.9090     0.5520 c2         1 7AK      -0.150200
     40 C22          8.8320     1.4260     1.2490 ce         1 7AK      -0.136000
     41 C23          9.5900     0.2220     0.9450 ce         1 7AK      -0.134000
     42 C24         10.6100    -0.2090     1.6900 c2         1 7AK      -0.214000
     43 H4          -7.1510    -1.1050     2.3730 hc         1 7AK       0.063700
     44 H5          -7.7730     0.0120    -0.3790 h1         1 7AK       0.087700
     45 H62         -5.4790    -1.7340     0.5930 hc         1 7AK       0.061700
     46 H61         -6.9650    -2.4090    -0.0350 hc         1 7AK       0.061700
     47 H11         -1.3810    -1.6410    -0.4550 h1         1 7AK       0.070700
     48 H7          -5.3120    -0.4360    -1.6510 h1         1 7AK       0.091700
     49 H8          -5.1500    -3.5060    -1.8010 ha         1 7AK       0.115000
     50 H9          -2.8440    -3.1950    -2.1280 ha         1 7AK       0.119000
     51 H10         -3.4040    -0.1850    -2.1970 hc         1 7AK       0.060700
     52 H12         -0.3560     0.3530    -1.3970 hc         1 7AK       0.054700
     53 H1          -0.9690     1.0460     1.5090 ha         1 7AK       0.126000
     54 H3          -8.5850     0.6190     3.3310 h1         1 7AK       0.043700
     55 H262        -9.7330    -0.8510     0.7570 hc         1 7AK       0.042700
     56 H261        -8.8470    -2.3370     1.0910 hc         1 7AK       0.042700
     57 H263        -9.6080    -1.4620     2.4070 hc         1 7AK       0.042700
     58 HO3         -9.1460     2.3740     1.9400 ho         1 7AK       0.410000
     59 H2          -7.0090     2.5610     2.9700 hc         1 7AK       0.080700
     60 H252        -5.5500    -0.0850     3.4710 hc         1 7AK       0.047367
     61 H251        -5.0920     1.5240     4.0160 hc         1 7AK       0.047367
     62 H253        -6.5490     0.7640     4.6490 hc         1 7AK       0.047367
     63 HO7         -7.2780    -2.2870    -2.4140 ho         1 7AK       0.393000
     64 H272        -0.8920    -1.7470    -2.9680 hc         1 7AK       0.037367
     65 H273        -2.1860    -1.3470    -4.0960 hc         1 7AK       0.037367
     66 H271        -1.2520    -0.0610    -3.3510 hc         1 7AK       0.037367
     67 HO11        -3.5840    -0.0330     0.2350 ho         1 7AK       0.411000
     68 H282        -1.1810     2.6210    -0.8660 hc         1 7AK       0.040033
     69 H281        -2.3350     1.7680    -1.8790 hc         1 7AK       0.040033
     70 H283        -2.6430     1.9670    -0.1530 hc         1 7AK       0.040033
     71 H293         2.3340     0.6670     2.4060 hc         1 7AK       0.042033
     72 H291         0.6970     0.7760     3.0550 hc         1 7AK       0.042033
     73 H292         1.4890    -0.7920     2.8660 hc         1 7AK       0.042033
     74 H152         2.0340    -1.5870     0.5310 hc         1 7AK       0.048200
     75 H151         1.1160    -1.0020    -0.8350 hc         1 7AK       0.048200
     76 H16          3.3970     0.4920     0.5050 hc         1 7AK       0.069700
     77 H302         1.9930     1.1110    -2.1440 hc         1 7AK       0.033367
     78 H303         1.7640     1.9820    -0.6400 hc         1 7AK       0.033367
     79 H301         3.3260     2.0250    -1.4420 hc         1 7AK       0.033367
     80 H17          4.1330    -1.5910    -0.5030 h1         1 7AK       0.080700
     81 HO17         3.0760    -0.6640    -2.9340 ho         1 7AK       0.397000
     82 H18          4.9460     0.7710    -2.2340 hc         1 7AK       0.052700
     83 H313         6.4070    -1.8710    -1.7360 hc         1 7AK       0.039700
     84 H311         5.6070    -1.3870    -3.2260 hc         1 7AK       0.039700
     85 H312         7.0200    -0.5130    -2.6760 hc         1 7AK       0.039700
     86 H19          5.2310     1.2880     0.1250 h1         1 7AK       0.076700
     87 H332         7.1870    -1.9490     2.1600 hn         1 7AK       0.324500
     88 H331         6.5030    -1.2670     3.5790 hn         1 7AK       0.324500
     89 H20          7.9080     0.6300    -1.1500 hc         1 7AK       0.064700
     90 H333         7.8450     3.0420    -1.8670 hc         1 7AK       0.038700
     91 H322         6.6250     2.0700    -2.6760 hc         1 7AK       0.038700
     92 H321         6.1650     3.1350    -1.3450 hc         1 7AK       0.038700
     93 H21          7.3190     2.8130     0.9180 ha         1 7AK       0.128000
     94 H22          9.1450     1.9680     2.1380 ha         1 7AK       0.123000
     95 H23          9.3060    -0.3490     0.0690 ha         1 7AK       0.123000
     96 H242        10.9300     0.3240     2.5780 ha         1 7AK       0.112000
     97 H241        11.1530    -1.1100     1.4400 ha         1 7AK       0.112000
@<TRIPOS>BOND
     1     1     3 1   
     2     1    12 1   
     3     1    13 1   
     4     1    43 1   
     5     2    11 2   
     6     2    24 1   
     7     2    25 1   
     8     3     4 1   
     9     3    19 1   
    10     3    44 1   
    11     4     6 1   
    12     4    45 1   
    13     4    46 1   
    14     5     9 1   
    15     5    10 1   
    16     5    22 1   
    17     5    47 1   
    18     6     7 1   
    19     6    20 1   
    20     6    48 1   
    21     7     8 2   
    22     7    49 1   
    23     8     9 1   
    24     8    50 1   
    25     9    21 1   
    26     9    51 1   
    27    10    11 1   
    28    10    23 1   
    29    10    52 1   
    30    11    53 1   
    31    12    14 1   
    32    12    15 1   
    33    12    54 1   
    34    13    55 1   
    35    13    56 1   
    36    13    57 1   
    37    14    58 1   
    38    15    16 1   
    39    15    17 1   
    40    15    59 1   
    41    16    60 1   
    42    16    61 1   
    43    16    62 1   
    44    17    18 2   
    45    17    19 1   
    46    20    63 1   
    47    21    64 1   
    48    21    65 1   
    49    21    66 1   
    50    22    67 1   
    51    23    68 1   
    52    23    69 1   
    53    23    70 1   
    54    24    71 1   
    55    24    72 1   
    56    24    73 1   
    57    25    26 1   
    58    25    74 1   
    59    25    75 1   
    60    26    27 1   
    61    26    28 1   
    62    26    76 1   
    63    27    77 1   
    64    27    78 1   
    65    27    79 1   
    66    28    29 1   
    67    28    30 1   
    68    28    80 1   
    69    29    81 1   
    70    30    31 1   
    71    30    32 1   
    72    30    82 1   
    73    31    83 1   
    74    31    84 1   
    75    31    85 1   
    76    32    33 1   
    77    32    37 1   
    78    32    86 1   
    79    33    34 1   
    80    34    35 2   
    81    34    36 1   
    82    36    87 1   
    83    36    88 1   
    84    37    38 1   
    85    37    39 1   
    86    37    89 1   
    87    38    90 1   
    88    38    91 1   
    89    38    92 1   
    90    39    40 2   
    91    39    93 1   
    92    40    41 1   
    93    40    94 1   
    94    41    42 2   
    95    41    95 1   
    96    42    96 1   
    97    42    97 1   
@<TRIPOS>SUBSTRUCTURE
     1 7AK         1 TEMP              0 ****  ****    0 ROOT
