@<TRIPOS>MOLECULE
7AL
   56    58     1     0     0
SMALL
No Charge or Current Charge


@<TRIPOS>ATOM
      1 O1          -1.8320    -0.8430     2.3380 oh         1 7AL      -0.654000
      2 O2          -3.7210    -1.4040    -1.8500 o          1 7AL      -0.505000
      3 O4           3.4990    -3.7460     0.7440 oh         1 7AL      -0.653000
      4 C11          4.1170     1.2610    -1.5930 c3         1 7AL      -0.087600
      5 C12          4.7850     1.4310     0.7960 c3         1 7AL      -0.087600
      6 C1           1.2780     2.4610    -0.6240 c6         1 7AL       0.159300
      7 C2           2.6510     2.5550     0.0780 c6         1 7AL      -0.081400
      8 C3           3.5360     1.2880    -0.1380 c6         1 7AL      -0.032000
      9 C4           2.6950     0.0060     0.2690 c6         1 7AL      -0.045700
     10 C5           1.2440    -0.1200    -0.3750 c6         1 7AL      -0.025000
     11 C6           0.4830     1.2220    -0.1450 c6         1 7AL      -0.085400
     12 C7           3.5230    -1.3720     0.1600 c6         1 7AL      -0.068400
     13 C8           2.7480    -2.5320     0.8350 c6         1 7AL       0.203500
     14 C9           1.3550    -2.6740     0.2160 c2         1 7AL      -0.147400
     15 C10          0.5310    -1.3580     0.3980 c6         1 7AL      -0.016500
     16 C13          1.2500    -0.4530    -1.9110 c3         1 7AL      -0.084100
     17 C14         -1.0270    -1.6260     0.1820 c3         1 7AL      -0.108400
     18 C15         -2.0380    -0.7060     0.9290 c3         1 7AL       0.184300
     19 C16         -3.5300    -1.0170     0.6270 c5         1 7AL      -0.190700
     20 Cl1          0.2990     3.9900    -0.2890 cl         1 7AL      -0.309000
     21 C17         -3.8520    -0.7170    -0.8520 c          1 7AL       0.575000
     22 N1          -4.5300     0.4550    -0.8050 ns         1 7AL      -0.480500
     23 C18         -4.8630     1.0210     0.3770 c          1 7AL       0.570000
     24 C19         -4.5490    -0.0850     1.3880 c5         1 7AL      -0.166400
     25 O3          -5.1240     2.2010     0.5370 o          1 7AL      -0.497000
     26 C20          0.9470    -3.7470    -0.5000 c2         1 7AL      -0.315000
     27 H1          -2.0560    -1.7690     2.5720 ho         1 7AL       0.442000
     28 H2           2.9250    -4.4420     1.1290 ho         1 7AL       0.445000
     29 H3           4.6150     0.3120    -1.8210 hc         1 7AL       0.036533
     30 H4           3.3670     1.4400    -2.3650 hc         1 7AL       0.036533
     31 H5           4.8660     2.0510    -1.7310 hc         1 7AL       0.036533
     32 H6           5.2820     2.3990     0.6550 hc         1 7AL       0.036533
     33 H7           4.5070     1.3650     1.8550 hc         1 7AL       0.036533
     34 H8           5.5400     0.6600     0.6020 hc         1 7AL       0.036533
     35 H9           1.4040     2.4450    -1.7150 h1         1 7AL       0.076700
     36 H10          3.1800     3.4510    -0.2760 hc         1 7AL       0.056700
     37 H11          2.4830     2.7080     1.1530 hc         1 7AL       0.056700
     38 H12          2.5170     0.1380     1.3460 hc         1 7AL       0.042700
     39 H13          0.2490     1.3390     0.9220 hc         1 7AL       0.060200
     40 H14         -0.4710     1.2070    -0.6860 hc         1 7AL       0.060200
     41 H15          3.7540    -1.6730    -0.8830 hc         1 7AL       0.058700
     42 H16          4.5160    -1.3320     0.6530 hc         1 7AL       0.058700
     43 H17          2.6220    -2.2740     1.8970 h1         1 7AL       0.033700
     44 H18          0.5920    -1.1290     1.4710 hc         1 7AL       0.063700
     45 H19          1.8930    -1.3060    -2.1530 hc         1 7AL       0.038700
     46 H20          0.2470    -0.7080    -2.2660 hc         1 7AL       0.038700
     47 H21          1.5660     0.3820    -2.5360 hc         1 7AL       0.038700
     48 H22         -1.2500    -1.6160    -0.8890 hc         1 7AL       0.060700
     49 H23         -1.2600    -2.6440     0.5170 hc         1 7AL       0.060700
     50 H24         -1.8680     0.3370     0.6400 h1         1 7AL       0.085700
     51 H25         -3.6840    -2.0850     0.8150 hc         1 7AL       0.081700
     52 H26         -4.7450     0.9370    -1.6640 hn         1 7AL       0.346500
     53 H27         -5.4790    -0.6430     1.5410 hc         1 7AL       0.094200
     54 H28         -4.2300     0.3280     2.3510 hc         1 7AL       0.094200
     55 H29          1.5790    -4.6210    -0.6550 ha         1 7AL       0.167500
     56 H30         -0.0230    -3.7910    -0.9930 ha         1 7AL       0.167500
@<TRIPOS>BOND
     1     1    18 1   
     2     1    27 1   
     3     2    21 2   
     4     3    13 1   
     5     3    28 1   
     6     4     8 1   
     7     4    29 1   
     8     4    30 1   
     9     4    31 1   
    10     5     8 1   
    11     5    32 1   
    12     5    33 1   
    13     5    34 1   
    14     6     7 1   
    15     6    11 1   
    16     6    20 1   
    17     6    35 1   
    18     7     8 1   
    19     7    36 1   
    20     7    37 1   
    21     8     9 1   
    22     9    10 1   
    23     9    12 1   
    24     9    38 1   
    25    10    11 1   
    26    10    15 1   
    27    10    16 1   
    28    11    39 1   
    29    11    40 1   
    30    12    13 1   
    31    12    41 1   
    32    12    42 1   
    33    13    14 1   
    34    13    43 1   
    35    14    15 1   
    36    14    26 2   
    37    15    17 1   
    38    15    44 1   
    39    16    45 1   
    40    16    46 1   
    41    16    47 1   
    42    17    18 1   
    43    17    48 1   
    44    17    49 1   
    45    18    19 1   
    46    18    50 1   
    47    19    21 1   
    48    19    24 1   
    49    19    51 1   
    50    21    22 1   
    51    22    23 1   
    52    22    52 1   
    53    23    24 1   
    54    23    25 2   
    55    24    53 1   
    56    24    54 1   
    57    26    55 1   
    58    26    56 1   
@<TRIPOS>SUBSTRUCTURE
     1 7AL         1 TEMP              0 ****  ****    0 ROOT
