@<TRIPOS>MOLECULE
7AL
   56    58     1     0     0
SMALL
bcc


@<TRIPOS>ATOM
      1 O1          -1.8210    -1.2460     2.2190 oh         1 7AL      -0.591800
      2 O2          -3.0390     0.3850    -1.7170 o          1 7AL      -0.580500
      3 O4           3.3960    -3.6160     0.9510 oh         1 7AL      -0.590800
      4 C11          4.2230     1.0260    -1.5290 c3         1 7AL      -0.087600
      5 C12          4.6340     1.4250     0.8760 c3         1 7AL      -0.087600
      6 C1           1.3810     2.2920    -0.9420 c6         1 7AL       0.082700
      7 C2           2.6600     2.4590    -0.1560 c6         1 7AL      -0.081400
      8 C3           3.5360     1.1930    -0.1700 c6         1 7AL      -0.032000
      9 C4           2.6670    -0.0180     0.2570 c6         1 7AL      -0.045700
     10 C5           1.3060    -0.1860    -0.4760 c6         1 7AL      -0.025000
     11 C6           0.5440     1.1470    -0.4110 c6         1 7AL      -0.085400
     12 C7           3.4420    -1.3350     0.3020 c6         1 7AL      -0.068400
     13 C8           2.6240    -2.4420     0.9590 c6         1 7AL       0.180300
     14 C9           1.2930    -2.5590     0.2580 c2         1 7AL      -0.147400
     15 C10          0.5100    -1.2700     0.3310 c6         1 7AL      -0.016500
     16 C13          1.4270    -0.6310    -1.9390 c3         1 7AL      -0.084100
     17 C14         -0.9740    -1.3890    -0.0470 c3         1 7AL      -0.108400
     18 C15         -1.9200    -0.6890     0.9260 c3         1 7AL       0.161100
     19 C16         -3.3770    -0.7410     0.4410 c5         1 7AL      -0.190700
     20 CL1          0.4110     3.8290    -0.8330 cl         1 7AL      -0.232400
     21 C17         -3.6870     0.1920    -0.7160 c          1 7AL       0.717500
     22 N1          -4.8880     0.8000    -0.4480 ns         1 7AL      -0.614500
     23 C18         -5.4160     0.5010     0.7850 c          1 7AL       0.712500
     24 C19         -4.4090    -0.3560     1.5030 c5         1 7AL      -0.166400
     25 O3          -6.4800     0.8980     1.1920 o          1 7AL      -0.572500
     26 C20          0.9250    -3.6590    -0.3920 c2         1 7AL      -0.215000
     27 H1          -1.9750    -2.1960     2.1550 ho         1 7AL       0.403000
     28 H2           2.9280    -4.2900     1.4560 ho         1 7AL       0.406000
     29 H3           4.8340     0.1230    -1.5550 hc         1 7AL       0.036533
     30 H4           3.5320     0.9770    -2.3680 hc         1 7AL       0.036533
     31 H5           4.8920     1.8700    -1.7110 hc         1 7AL       0.036533
     32 H6           5.1470     2.3690     0.6790 hc         1 7AL       0.036533
     33 H7           4.2160     1.4810     1.8830 hc         1 7AL       0.036533
     34 H8           5.3920     0.6410     0.8700 hc         1 7AL       0.036533
     35 H9           1.5800     2.1790    -2.0070 h1         1 7AL       0.076700
     36 H10          3.2350     3.3040    -0.5450 hc         1 7AL       0.056700
     37 H11          2.3980     2.6980     0.8800 hc         1 7AL       0.056700
     38 H12          2.3880     0.2100     1.2970 hc         1 7AL       0.042700
     39 H13          0.2780     1.3690     0.6280 hc         1 7AL       0.060200
     40 H14         -0.3870     1.0780    -0.9770 hc         1 7AL       0.060200
     41 H15          3.7270    -1.6610    -0.7010 hc         1 7AL       0.058700
     42 H16          4.3690    -1.2090     0.8650 hc         1 7AL       0.058700
     43 H17          2.4160    -2.1310     1.9960 h1         1 7AL       0.033700
     44 H18          0.5580    -0.9510     1.3810 hc         1 7AL       0.063700
     45 H19          2.1840    -1.3980    -2.0880 hc         1 7AL       0.038700
     46 H20          0.4840    -1.0490    -2.2950 hc         1 7AL       0.038700
     47 H21          1.6670     0.1930    -2.6080 hc         1 7AL       0.038700
     48 H22         -1.1560    -1.0250    -1.0580 hc         1 7AL       0.060700
     49 H23         -1.2780    -2.4410    -0.0660 hc         1 7AL       0.060700
     50 H24         -1.6390     0.3610     1.0500 h1         1 7AL       0.085700
     51 H25         -3.5920    -1.7550     0.0790 hc         1 7AL       0.081700
     52 H26         -5.3380     1.4280    -1.1020 hn         1 7AL       0.346500
     53 H27         -4.8940    -1.2100     1.9740 hc         1 7AL       0.094200
     54 H28         -3.9700     0.2460     2.3020 hc         1 7AL       0.094200
     55 H29          1.5640    -4.5310    -0.4420 ha         1 7AL       0.117500
     56 H30         -0.0160    -3.7360    -0.9190 ha         1 7AL       0.117500
@<TRIPOS>BOND
     1     1    18 1   
     2     1    27 1   
     3     2    21 2   
     4     3    13 1   
     5     3    28 1   
     6     4     8 1   
     7     4    29 1   
     8     4    30 1   
     9     4    31 1   
    10     5     8 1   
    11     5    32 1   
    12     5    33 1   
    13     5    34 1   
    14     6     7 1   
    15     6    11 1   
    16     6    20 1   
    17     6    35 1   
    18     7     8 1   
    19     7    36 1   
    20     7    37 1   
    21     8     9 1   
    22     9    10 1   
    23     9    12 1   
    24     9    38 1   
    25    10    11 1   
    26    10    15 1   
    27    10    16 1   
    28    11    39 1   
    29    11    40 1   
    30    12    13 1   
    31    12    41 1   
    32    12    42 1   
    33    13    14 1   
    34    13    43 1   
    35    14    15 1   
    36    14    26 2   
    37    15    17 1   
    38    15    44 1   
    39    16    45 1   
    40    16    46 1   
    41    16    47 1   
    42    17    18 1   
    43    17    48 1   
    44    17    49 1   
    45    18    19 1   
    46    18    50 1   
    47    19    21 1   
    48    19    24 1   
    49    19    51 1   
    50    21    22 1   
    51    22    23 1   
    52    22    52 1   
    53    23    24 1   
    54    23    25 2   
    55    24    53 1   
    56    24    54 1   
    57    26    55 1   
    58    26    56 1   
@<TRIPOS>SUBSTRUCTURE
     1 7AL         1 TEMP              0 ****  ****    0 ROOT
