@<TRIPOS>MOLECULE
7AM
   51    54     1     0     0
SMALL
No Charge or Current Charge


@<TRIPOS>ATOM
      1 CAP         -5.4850    -1.3070     0.2220 ca         1 7AM      -0.109000
      2 CAQ         -6.6760    -0.9160     0.8570 ca         1 7AM      -0.109000
      3 CAR         -6.7840     0.3590     1.4410 ca         1 7AM      -0.102300
      4 CAU         -8.0720     0.7830     2.1310 c3         1 7AM      -0.036800
      5 CAS         -5.6870     1.2380     1.3820 ca         1 7AM      -0.109000
      6 CAT         -4.4950     0.8460     0.7480 ca         1 7AM      -0.109000
      7 CAK         -4.3800    -0.4350     0.1650 ca         1 7AM       0.020200
      8 CAD         -3.1480    -0.8600    -0.5060 cc         1 7AM      -0.074600
      9 SAE         -3.0460    -2.0300    -1.8530 ss         1 7AM      -0.188900
     10 CAC         -1.9040    -0.4160    -0.0990 cd         1 7AM      -0.085200
     11 C5          -0.8110    -0.9740    -0.8700 ca         1 7AM      -0.265800
     12 C6          -1.2700    -1.8410    -1.8380 ca         1 7AM       0.202300
     13 N1          -0.4440    -2.4770    -2.6870 nb         1 7AM      -0.237000
     14 C2           0.8720    -2.2040    -2.5260 ca         1 7AM       0.195900
     15 N3           1.4210    -1.3700    -1.6120 nb         1 7AM      -0.226000
     16 C4           0.5690    -0.7530    -0.7700 ca         1 7AM       0.443900
     17 N            1.0880     0.1230     0.1780 nu         1 7AM      -0.861100
     18 CA           2.4740     0.6770     0.2440 c3         1 7AM       0.095500
     19 C            3.5680    -0.3970     0.5940 c          1 7AM       0.595100
     20 O            3.6160    -0.9640     1.6830 o          1 7AM      -0.647100
     21 NAN          4.4610    -0.6290    -0.4080 ns         1 7AM      -0.441900
     22 PBC          5.7890    -1.6320    -0.4980 p5         1 7AM       1.216900
     23 OBD          6.3460    -1.4440    -1.8650 o          1 7AM      -0.904167
     24 OBF          6.7360    -1.1970     0.5650 o          1 7AM      -0.904167
     25 OBE          5.3160    -3.0230    -0.2610 o          1 7AM      -0.904167
     26 CB           2.5100     1.8580     1.2470 c3         1 7AM      -0.053100
     27 CG           1.4830     2.9430     0.9340 ca         1 7AM      -0.048300
     28 CD1          0.3650     3.1300     1.7730 ca         1 7AM      -0.110500
     29 CE1         -0.5900     4.1180     1.4730 ca         1 7AM      -0.118000
     30 CZ          -0.4310     4.9270     0.3360 ca         1 7AM      -0.136000
     31 CE2          0.6820     4.7480    -0.5020 ca         1 7AM      -0.118000
     32 CD2          1.6360     3.7600    -0.2040 ca         1 7AM      -0.110500
     33 H1          -5.4200    -2.2980    -0.2200 ha         1 7AM       0.118000
     34 H2          -7.5160    -1.6060     0.8960 ha         1 7AM       0.100000
     35 H3          -8.0500     0.5180     3.1940 hc         1 7AM       0.032033
     36 H4          -8.2270     1.8660     2.0580 hc         1 7AM       0.032033
     37 H5          -8.9450     0.2950     1.6820 hc         1 7AM       0.032033
     38 H6          -5.7570     2.2280     1.8260 ha         1 7AM       0.100000
     39 H7          -3.6700     1.5500     0.7000 ha         1 7AM       0.118000
     40 H8          -1.7650     0.2670     0.7330 ha         1 7AM       0.193000
     41 H9           1.5600    -2.7050    -3.2040 h5         1 7AM       0.048100
     42 H10          0.3860     0.5890     0.7470 hn         1 7AM       0.481000
     43 H11          2.7300     1.0870    -0.7430 h1         1 7AM       0.072700
     44 H12          4.3400    -0.1310    -1.2720 hn         1 7AM       0.246500
     45 H15          2.3590     1.4700     2.2620 hc         1 7AM       0.074700
     46 H16          3.5170     2.2930     1.2410 hc         1 7AM       0.074700
     47 H17          0.2320     2.5100     2.6570 ha         1 7AM       0.115500
     48 H18         -1.4510     4.2560     2.1230 ha         1 7AM       0.096000
     49 H19         -1.1700     5.6910     0.1040 ha         1 7AM       0.091000
     50 H20          0.8050     5.3740    -1.3830 ha         1 7AM       0.096000
     51 H21          2.4940     3.6270    -0.8590 ha         1 7AM       0.115500
@<TRIPOS>BOND
     1     1     2 ar  
     2     1     7 ar  
     3     1    33 1   
     4     2     3 ar  
     5     2    34 1   
     6     3     4 1   
     7     3     5 ar  
     8     4    35 1   
     9     4    36 1   
    10     4    37 1   
    11     5     6 ar  
    12     5    38 1   
    13     6     7 ar  
    14     6    39 1   
    15     7     8 1   
    16     8     9 1   
    17     8    10 2   
    18     9    12 1   
    19    10    11 1   
    20    10    40 1   
    21    11    12 ar  
    22    11    16 ar  
    23    12    13 ar  
    24    13    14 ar  
    25    14    15 ar  
    26    14    41 1   
    27    15    16 ar  
    28    16    17 1   
    29    17    18 1   
    30    17    42 1   
    31    18    19 1   
    32    18    26 1   
    33    18    43 1   
    34    19    20 2   
    35    19    21 1   
    36    21    22 1   
    37    21    44 1   
    38    22    23 1   
    39    22    24 1   
    40    22    25 1   
    41    26    27 1   
    42    26    45 1   
    43    26    46 1   
    44    27    28 ar  
    45    27    32 ar  
    46    28    29 ar  
    47    28    47 1   
    48    29    30 ar  
    49    29    48 1   
    50    30    31 ar  
    51    30    49 1   
    52    31    32 ar  
    53    31    50 1   
    54    32    51 1   
@<TRIPOS>SUBSTRUCTURE
     1 7AM         1 TEMP              0 ****  ****    0 ROOT
