@<TRIPOS>MOLECULE
7AM
   51    54     1     0     0
SMALL
bcc


@<TRIPOS>ATOM
      1 CAP         -5.6120    -1.6140     0.2210 ca         1 7AM      -0.127000
      2 CAQ         -6.8100    -1.4740     0.9060 ca         1 7AM      -0.127000
      3 CAR         -7.0350    -0.3930     1.7540 ca         1 7AM      -0.102300
      4 CAU         -8.3170    -0.2550     2.5190 c3         1 7AM      -0.036800
      5 CAS         -6.0180     0.5540     1.8830 ca         1 7AM      -0.127000
      6 CAT         -4.8240     0.4250     1.1960 ca         1 7AM      -0.127000
      7 CAK         -4.5960    -0.6680     0.3550 ca         1 7AM       0.020200
      8 CAD         -3.3230    -0.8010    -0.3490 cc         1 7AM      -0.074600
      9 SAE         -3.2180    -1.7560    -1.8080 ss         1 7AM      -0.188900
     10 CAC         -2.1240    -0.2500    -0.0200 cd         1 7AM      -0.035200
     11 C5          -1.0900    -0.5900    -0.9390 ca         1 7AM      -0.396400
     12 C6          -1.5320    -1.4110    -1.9700 ca         1 7AM       0.530600
     13 N1          -0.7780    -1.8780    -2.9640 nb         1 7AM      -0.763000
     14 C2           0.4800    -1.4870    -2.8990 ca         1 7AM       0.721900
     15 N3           1.0450    -0.7160    -1.9760 nb         1 7AM      -0.752000
     16 C4           0.2870    -0.2550    -0.9840 ca         1 7AM       0.772200
     17 N            0.8450     0.5480    -0.0670 nu         1 7AM      -0.805900
     18 CA           2.2680     0.7570     0.0100 c3         1 7AM       0.095500
     19 C            3.0030    -0.5310     0.4270 c          1 7AM       0.662100
     20 O            2.4170    -1.3740     1.0970 o          1 7AM      -0.647100
     21 NAN          4.2740    -0.5960     0.0460 ns         1 7AM      -0.508900
     22 PBC          5.4490    -1.9420     0.3720 p5         1 7AM       1.216900
     23 OBD          6.6740    -1.3810    -0.3360 o          1 7AM      -0.904167
     24 OBF          5.5460    -2.0070     1.8870 o          1 7AM      -0.904167
     25 OBE          4.8180    -3.1580    -0.2860 o          1 7AM      -0.904167
     26 CB           2.5560     1.8760     1.0190 c3         1 7AM      -0.053100
     27 CG           1.9660     3.1900     0.5900 ca         1 7AM      -0.048300
     28 CD1          0.8070     3.6900     1.1780 ca         1 7AM      -0.128500
     29 CE1          0.2520     4.8910     0.7510 ca         1 7AM      -0.136000
     30 CZ           0.8520     5.6090    -0.2740 ca         1 7AM      -0.154000
     31 CE2          2.0110     5.1210    -0.8660 ca         1 7AM      -0.136000
     32 CD2          2.5600     3.9220    -0.4360 ca         1 7AM      -0.128500
     33 H1          -5.4750    -2.4820    -0.4130 ha         1 7AM       0.136000
     34 H2          -7.5790    -2.2250     0.7780 ha         1 7AM       0.118000
     35 H3          -8.1840    -0.5650     3.5580 hc         1 7AM       0.032033
     36 H4          -8.6630     0.7780     2.5350 hc         1 7AM       0.032033
     37 H5          -9.1070    -0.8720     2.0930 hc         1 7AM       0.032033
     38 H6          -6.1680     1.4140     2.5250 ha         1 7AM       0.118000
     39 H7          -4.0700     1.1950     1.3030 ha         1 7AM       0.136000
     40 H8          -1.9850     0.3630     0.8600 ha         1 7AM       0.143000
     41 H9           1.1360    -1.8390    -3.6880 h5         1 7AM       0.048100
     42 H10          0.3120     0.7360     0.7660 hn         1 7AM       0.425800
     43 H11          2.6240     1.0740    -0.9730 h1         1 7AM       0.072700
     44 H12          4.6120     0.1630    -0.5270 hn         1 7AM       0.246500
     45 H15          2.1720     1.5860     2.0020 hc         1 7AM       0.074700
     46 H16          3.6390     1.9690     1.1230 hc         1 7AM       0.074700
     47 H17          0.3360     3.1400     1.9840 ha         1 7AM       0.133500
     48 H18         -0.6490     5.2640     1.2220 ha         1 7AM       0.114000
     49 H19          0.4230     6.5460    -0.6060 ha         1 7AM       0.109000
     50 H20          2.4890     5.6780    -1.6620 ha         1 7AM       0.114000
     51 H21          3.4650     3.5510    -0.9040 ha         1 7AM       0.133500
@<TRIPOS>BOND
     1     1     2 ar  
     2     1     7 ar  
     3     1    33 1   
     4     2     3 ar  
     5     2    34 1   
     6     3     4 1   
     7     3     5 ar  
     8     4    35 1   
     9     4    36 1   
    10     4    37 1   
    11     5     6 ar  
    12     5    38 1   
    13     6     7 ar  
    14     6    39 1   
    15     7     8 1   
    16     8     9 1   
    17     8    10 2   
    18     9    12 1   
    19    10    11 1   
    20    10    40 1   
    21    11    12 ar  
    22    11    16 ar  
    23    12    13 ar  
    24    13    14 ar  
    25    14    15 ar  
    26    14    41 1   
    27    15    16 ar  
    28    16    17 1   
    29    17    18 1   
    30    17    42 1   
    31    18    19 1   
    32    18    26 1   
    33    18    43 1   
    34    19    20 2   
    35    19    21 1   
    36    21    22 1   
    37    21    44 1   
    38    22    23 1   
    39    22    24 1   
    40    22    25 1   
    41    26    27 1   
    42    26    45 1   
    43    26    46 1   
    44    27    28 ar  
    45    27    32 ar  
    46    28    29 ar  
    47    28    47 1   
    48    29    30 ar  
    49    29    48 1   
    50    30    31 ar  
    51    30    49 1   
    52    31    32 ar  
    53    31    50 1   
    54    32    51 1   
@<TRIPOS>SUBSTRUCTURE
     1 7AM         1 TEMP              0 ****  ****    0 ROOT
