@<TRIPOS>MOLECULE
7AN
   29    30     1     0     0
SMALL
abcg2


@<TRIPOS>ATOM
      1 C10          3.8300     1.5250    -0.3010 ca         1 7AN      -0.090000
      2 N           -3.0420    -0.1100     0.3830 ns         1 7AN      -0.511900
      3 C           -5.3320     0.6520     0.4090 c3         1 7AN      -0.180100
      4 O           -3.7700     1.1480    -1.3340 o          1 7AN      -0.608100
      5 C01          0.6100    -1.0350     0.4790 cc         1 7AN      -0.145400
      6 N01          2.5170    -1.9270    -0.2920 na         1 7AN      -0.223700
      7 C02         -0.7950    -0.8790     0.9550 c3         1 7AN      -0.015200
      8 C03          1.5660     0.0150     0.2800 ca         1 7AN      -0.094800
      9 C04          2.7500    -0.5860    -0.2030 ca         1 7AN      -0.045200
     10 C05         -1.6970    -0.2850    -0.1230 c3         1 7AN       0.102000
     11 C06          1.2390    -2.1920     0.1160 cd         1 7AN      -0.152100
     12 C07          1.5350     1.4010     0.4730 ca         1 7AN      -0.060000
     13 C08          3.8910     0.1580    -0.4980 ca         1 7AN      -0.129000
     14 C09          2.6640     2.1420     0.1820 ca         1 7AN      -0.139000
     15 C11         -3.9850     0.5870    -0.2670 c          1 7AN       0.598100
     16 H1           4.6980     2.1320    -0.5240 ha         1 7AN       0.110000
     17 H2          -3.2930    -0.5890     1.2320 hn         1 7AN       0.308500
     18 H3          -5.5490     1.6840     0.6840 hc         1 7AN       0.058033
     19 H4          -6.1050     0.3350    -0.2920 hc         1 7AN       0.058033
     20 H5          -5.4030     0.0360     1.3040 hc         1 7AN       0.058033
     21 H6           3.1800    -2.6200    -0.5950 hn         1 7AN       0.350000
     22 H7          -1.1900    -1.8510     1.2650 hc         1 7AN       0.044200
     23 H8          -0.8200    -0.2320     1.8380 hc         1 7AN       0.044200
     24 H9          -1.6960    -0.9400    -0.9990 h1         1 7AN       0.056700
     25 H10         -1.3050     0.6810    -0.4480 h1         1 7AN       0.056700
     26 H11          0.8660    -3.2040     0.1230 h4         1 7AN       0.211000
     27 H12          0.6420     1.8860     0.8480 ha         1 7AN       0.115000
     28 H13          4.7920    -0.3140    -0.8690 ha         1 7AN       0.112000
     29 H14          2.6540     3.2150     0.3250 ha         1 7AN       0.112000
@<TRIPOS>BOND
     1     1    13 ar  
     2     1    14 ar  
     3     1    16 1   
     4     2    10 1   
     5     2    15 1   
     6     2    17 1   
     7     3    15 1   
     8     3    18 1   
     9     3    19 1   
    10     3    20 1   
    11     4    15 2   
    12     5     7 1   
    13     5     8 1   
    14     5    11 2   
    15     6     9 1   
    16     6    11 1   
    17     6    21 1   
    18     7    10 1   
    19     7    22 1   
    20     7    23 1   
    21     8     9 ar  
    22     8    12 ar  
    23     9    13 ar  
    24    10    24 1   
    25    10    25 1   
    26    11    26 1   
    27    12    14 ar  
    28    12    27 1   
    29    13    28 1   
    30    14    29 1   
@<TRIPOS>SUBSTRUCTURE
     1 7AN         1 TEMP              0 ****  ****    0 ROOT
