@<TRIPOS>MOLECULE
7AN
   29    30     1     0     0
SMALL
No Charge or Current Charge


@<TRIPOS>ATOM
      1 C10          3.8390     1.5550    -0.3600 ca         1 7AN      -0.090000
      2 N           -3.0550    -0.0380     0.3860 ns         1 7AN      -0.511900
      3 C           -5.4110     0.6090     0.3470 c3         1 7AN      -0.180100
      4 O           -3.8960     0.9090    -1.5070 o          1 7AN      -0.608100
      5 C01          0.6460    -1.0260     0.5150 cc         1 7AN      -0.145400
      6 N01          2.6070    -1.9690    -0.2160 na         1 7AN      -0.223700
      7 C02         -0.7710    -0.8360     0.9890 c3         1 7AN      -0.015200
      8 C03          1.6140     0.0050     0.2670 ca         1 7AN      -0.094800
      9 C04          2.7630    -0.5970    -0.1660 ca         1 7AN      -0.045200
     10 C05         -1.6820    -0.2230    -0.0910 c3         1 7AN       0.102000
     11 C06          1.2810    -2.2270     0.2130 cd         1 7AN      -0.152100
     12 C07          1.5170     1.3970     0.4140 ca         1 7AN      -0.060000
     13 C08          3.9030     0.1510    -0.4910 ca         1 7AN      -0.129000
     14 C09          2.6500     2.1750     0.0920 ca         1 7AN      -0.139000
     15 C11         -4.0660     0.5180    -0.3610 c          1 7AN       0.598100
     16 H1           4.7070     2.1620    -0.6050 ha         1 7AN       0.110000
     17 H2          -3.2900    -0.3330     1.3260 hn         1 7AN       0.308500
     18 H3          -5.2830     1.1580     1.2870 hc         1 7AN       0.058033
     19 H4          -6.1900     1.0570    -0.2800 hc         1 7AN       0.058033
     20 H5          -5.6980    -0.3890     0.6980 hc         1 7AN       0.058033
     21 H6           3.3020    -2.6530    -0.5020 hn         1 7AN       0.350000
     22 H7          -1.1880    -1.8000     1.3040 hc         1 7AN       0.044200
     23 H8          -0.7750    -0.1880     1.8740 hc         1 7AN       0.044200
     24 H9          -1.6980    -0.8820    -0.9700 h1         1 7AN       0.056700
     25 H10         -1.2810     0.7510    -0.4020 h1         1 7AN       0.056700
     26 H11          0.8870    -3.2390     0.2660 h4         1 7AN       0.211000
     27 H12          0.6010     1.8640     0.7650 ha         1 7AN       0.115000
     28 H13          4.8130    -0.3350    -0.8360 ha         1 7AN       0.112000
     29 H14          2.6080     3.2570     0.1930 ha         1 7AN       0.112000
@<TRIPOS>BOND
     1     1    13 ar  
     2     1    14 ar  
     3     1    16 1   
     4     2    10 1   
     5     2    15 1   
     6     2    17 1   
     7     3    15 1   
     8     3    18 1   
     9     3    19 1   
    10     3    20 1   
    11     4    15 2   
    12     5     7 1   
    13     5     8 1   
    14     5    11 2   
    15     6     9 1   
    16     6    11 1   
    17     6    21 1   
    18     7    10 1   
    19     7    22 1   
    20     7    23 1   
    21     8     9 ar  
    22     8    12 ar  
    23     9    13 ar  
    24    10    24 1   
    25    10    25 1   
    26    11    26 1   
    27    12    14 ar  
    28    12    27 1   
    29    13    28 1   
    30    14    29 1   
@<TRIPOS>SUBSTRUCTURE
     1 7AN         1 TEMP              0 ****  ****    0 ROOT
