@<TRIPOS>MOLECULE
7AO
  122   123     1     0     0
SMALL
bcc


@<TRIPOS>ATOM
      1 C5           8.5360     1.7020     2.7730 c6         1 7AO       0.189100
      2 C4           9.0600     1.2110     4.1170 c6         1 7AO      -0.088700
      3 C2           9.9470    -0.8560     3.0410 c6         1 7AO      -0.211700
      4 C6           7.0900     2.1670     2.8250 c3         1 7AO      -0.120400
      5 N82        -13.8570     4.3370     6.2130 n1         1 7AO      -0.037000
      6 N81        -13.4060     3.6520     5.4490 n1         1 7AO       0.235000
      7 C8         -11.6670     2.5830     4.4840 ca         1 7AO       0.086600
      8 C7         -11.3060     1.7020     3.4720 ca         1 7AO      -0.067000
      9 C9         -10.6920     3.0990     5.3370 ca         1 7AO      -0.167000
     10 C40         -9.3690     2.7270     5.1630 ca         1 7AO      -0.110000
     11 C41         -9.0020     1.8590     4.1460 ca         1 7AO      -0.126000
     12 C36         -9.9760     1.3480     3.2900 ca         1 7AO      -0.129600
     13 C33         -9.6570     0.3870     2.1870 c          1 7AO       0.677700
     14 O5         -10.4900    -0.4150     1.7860 o          1 7AO      -0.592100
     15 N4          -8.4210     0.4650     1.6750 ns         1 7AO      -0.571900
     16 C34         -7.9740    -0.3870     0.5940 c3         1 7AO       0.106000
     17 C3          -6.4770    -0.2350     0.3890 c3         1 7AO      -0.117400
     18 C35         -5.9920    -1.1060    -0.7590 c3         1 7AO       0.127000
     19 N1          -4.5740    -0.9090    -0.9610 ns         1 7AO      -0.577900
     20 C1          -3.9210    -1.4490    -2.0010 c          1 7AO       0.761100
     21 O1          -4.4380    -2.1550    -2.8450 o          1 7AO      -0.592000
     22 C19         -1.7610    -1.4770    -3.0580 c3         1 7AO       0.184100
     23 C20         -1.4420    -0.2140    -3.8690 c3         1 7AO      -0.046500
     24 C32         -2.7180     0.4490    -4.3960 c3         1 7AO      -0.086100
     25 C21         -0.6370     0.7790    -3.0830 c2         1 7AO      -0.145200
     26 C22          0.4620     1.4250    -3.4910 ce         1 7AO      -0.146000
     27 C23          1.1230     1.2750    -4.7780 ce         1 7AO      -0.138000
     28 C24          2.2130     1.9610    -5.1300 c2         1 7AO      -0.209000
     29 C18         -0.5520    -2.1810    -2.4310 c3         1 7AO      -0.097700
     30 C31         -0.9950    -3.4700    -1.7360 c3         1 7AO      -0.094100
     31 C17          0.5520    -2.4330    -3.4720 c3         1 7AO       0.144100
     32 O17          0.0420    -3.1190    -4.6000 oh         1 7AO      -0.596800
     33 C16          1.8130    -3.1200    -2.9220 c3         1 7AO      -0.083700
     34 C30          2.8900    -3.1700    -4.0010 c3         1 7AO      -0.086100
     35 C15          2.3350    -2.3960    -1.6710 c3         1 7AO      -0.038200
     36 C29          3.5600    -4.3830    -0.6760 c3         1 7AO      -0.051900
     37 C13          4.7490    -2.2440    -1.0030 c2         1 7AO      -0.146200
     38 C12          4.9780    -0.8140    -1.4090 c3         1 7AO      -0.055500
     39 C28          6.4010    -0.6440    -1.9450 c3         1 7AO      -0.096100
     40 C11          4.6640     0.1230    -0.2250 c3         1 7AO       0.161100
     41 O11          5.4210    -0.2230     0.9150 oh         1 7AO      -0.600800
     42 C10          4.7990     1.6220    -0.5570 c3         1 7AO      -0.068500
     43 C27          3.9450     2.0110    -1.7630 c3         1 7AO      -0.087100
     44 C37          5.1670     3.0470     1.5210 c2         1 7AO      -0.209200
     45 C38          6.6630     2.9670     1.5900 c3         1 7AO       0.181300
     46 O7           7.2640     4.2500     1.5740 oh         1 7AO      -0.588800
     47 O2           8.5790     0.6970     1.7300 os         1 7AO      -0.446900
     48 C43          9.2380    -0.4540     1.7720 c          1 7AO       0.764600
     49 O4           9.1920    -1.1640     0.7970 o          1 7AO      -0.592500
     50 C25          9.1040    -1.8990     3.7820 c3         1 7AO      -0.081100
     51 C42         10.2940     0.3500     3.9060 c6         1 7AO       0.155100
     52 O3          11.2740     1.1500     3.2830 oh         1 7AO      -0.592800
     53 C26          9.3350     2.3870     5.0490 c3         1 7AO      -0.082100
     54 H1           9.1720     2.5180     2.4190 h1         1 7AO       0.089700
     55 H2           8.2990     0.5800     4.5880 hc         1 7AO       0.063700
     56 H3          10.8750    -1.3500     2.7350 hc         1 7AO       0.080700
     57 H4           6.4420     1.2960     2.9470 hc         1 7AO       0.062200
     58 H5           6.9340     2.7880     3.7120 hc         1 7AO       0.062200
     59 H8         -10.9490     3.7790     6.1410 ha         1 7AO       0.133000
     60 H9          -8.6170     3.1160     5.8370 ha         1 7AO       0.136000
     61 H10         -7.9640     1.5690     4.0500 ha         1 7AO       0.133000
     62 H11         -7.8330     1.2440     1.9270 hn         1 7AO       0.314500
     63 H12         -8.2170    -1.4250     0.8320 h1         1 7AO       0.058200
     64 H13         -8.5040    -0.1390    -0.3320 h1         1 7AO       0.058200
     65 H14         -6.2390     0.8110     0.1740 hc         1 7AO       0.049200
     66 H15         -5.9510    -0.5060     1.3090 hc         1 7AO       0.049200
     67 H16         -6.2090    -2.1560    -0.5430 h1         1 7AO       0.056200
     68 H17         -6.5360    -0.8470    -1.6710 h1         1 7AO       0.056200
     69 H18         -4.0610    -0.3460    -0.3010 hn         1 7AO       0.325500
     70 H19         -2.2870    -2.1740    -3.7150 h1         1 7AO       0.083700
     71 H20         -0.8800    -0.5510    -4.7420 hc         1 7AO       0.073700
     72 H21         -2.4650     1.2320    -5.1110 hc         1 7AO       0.041033
     73 H22         -3.3570    -0.2740    -4.9050 hc         1 7AO       0.041033
     74 H23         -3.2990     0.9140    -3.5980 hc         1 7AO       0.041033
     75 H24         -1.0200     1.0190    -2.0960 ha         1 7AO       0.124000
     76 H25          0.9140     2.1400    -2.8110 ha         1 7AO       0.118000
     77 H26          0.7000     0.5740    -5.4890 ha         1 7AO       0.125000
     78 H27          2.6770     1.8290    -6.0970 ha         1 7AO       0.112500
     79 H28          2.6730     2.6780    -4.4590 ha         1 7AO       0.112500
     80 H29         -0.1350    -1.5050    -1.6770 hc         1 7AO       0.067700
     81 H30         -1.7230    -3.2720    -0.9510 hc         1 7AO       0.039033
     82 H31         -1.4600    -4.1680    -2.4370 hc         1 7AO       0.039033
     83 H32         -0.1560    -3.9810    -1.2650 hc         1 7AO       0.039033
     84 H33          0.8820    -1.4620    -3.8540 h1         1 7AO       0.076700
     85 H34         -0.1940    -4.0140    -4.3350 ho         1 7AO       0.402000
     86 H35          1.5540    -4.1500    -2.6470 hc         1 7AO       0.045700
     87 H36          3.2090    -2.1600    -4.2760 hc         1 7AO       0.039033
     88 H37          3.7750    -3.7050    -3.6560 hc         1 7AO       0.039033
     89 H38          2.5370    -3.6670    -4.9030 hc         1 7AO       0.039033
     90 H39          2.4330    -1.3310    -1.9030 hc         1 7AO       0.045200
     91 H40          1.5890    -2.4620    -0.8720 hc         1 7AO       0.045200
     92 H41          3.3220    -5.0530    -1.5060 hc         1 7AO       0.037033
     93 H42          4.5030    -4.7150    -0.2450 hc         1 7AO       0.037033
     94 H43          2.7760    -4.5270     0.0720 hc         1 7AO       0.037033
     95 H44          5.6060    -2.7390    -0.5520 ha         1 7AO       0.128000
     96 H45          4.2880    -0.5580    -2.2170 hc         1 7AO       0.055700
     97 H46          7.1590    -0.8550    -1.1860 hc         1 7AO       0.041033
     98 H47          6.5780    -1.3360    -2.7680 hc         1 7AO       0.041033
     99 H48          6.5830     0.3620    -2.3230 hc         1 7AO       0.041033
    100 H49          3.6190    -0.0560     0.0590 h1         1 7AO       0.066700
    101 H50          6.3480    -0.0290     0.7450 ho         1 7AO       0.413000
    102 H51          5.8470     1.8270    -0.8010 hc         1 7AO       0.061700
    103 H52          2.9030     1.7220    -1.6130 hc         1 7AO       0.037033
    104 H53          3.9690     3.0910    -1.9190 hc         1 7AO       0.037033
    105 H54          4.2850     1.5410    -2.6850 hc         1 7AO       0.037033
    106 H55          3.3090     2.5680     0.7410 ha         1 7AO       0.117000
    107 H56          4.6920     3.6150     2.3190 ha         1 7AO       0.115000
    108 H57          7.0450     2.4750     0.6940 h1         1 7AO       0.090700
    109 H58          6.9540     4.7390     2.3440 ho         1 7AO       0.394000
    110 H59          8.9820    -2.7980     3.1800 hc         1 7AO       0.047033
    111 H60          9.6040    -2.1820     4.7080 hc         1 7AO       0.047033
    112 H61          8.1100    -1.5330     4.0380 hc         1 7AO       0.047033
    113 H62         10.6450    -0.0150     4.8810 h1         1 7AO       0.044700
    114 H63         12.0790     0.6310     3.1870 ho         1 7AO       0.410000
    115 H64          8.4160     2.9030     5.3280 hc         1 7AO       0.042700
    116 H65          9.7970     2.0360     5.9730 hc         1 7AO       0.042700
    117 H66         10.0060     3.1170     4.5960 hc         1 7AO       0.042700
    118 C39          4.3840     2.4530     0.6240 c2         1 7AO      -0.121200
    119 C14          3.6230    -2.9510    -1.1270 c2         1 7AO      -0.122400
    120 O19         -2.6270    -1.1050    -1.9760 os         1 7AO      -0.455900
    121 H7         -12.0730     1.3020     2.8210 ha         1 7AO       0.172000
    122 N8         -13.0350     2.8880     4.5690 n2         1 7AO      -0.299600
@<TRIPOS>BOND
     1     1     2 1   
     2     1     4 1   
     3     1    47 1   
     4     1    54 1   
     5     2    51 1   
     6     2    53 1   
     7     2    55 1   
     8     3    48 1   
     9     3    50 1   
    10     3    51 1   
    11     3    56 1   
    12     4    45 1   
    13     4    57 1   
    14     4    58 1   
    15     5     6 3   
    16     6   122 1   
    17     7     8 ar  
    18     7     9 ar  
    19     7   122 1   
    20     8    12 ar  
    21     8   121 1   
    22     9    10 ar  
    23     9    59 1   
    24    10    11 ar  
    25    10    60 1   
    26    11    12 ar  
    27    11    61 1   
    28    12    13 1   
    29    13    14 2   
    30    13    15 1   
    31    15    16 1   
    32    15    62 1   
    33    16    17 1   
    34    16    63 1   
    35    16    64 1   
    36    17    18 1   
    37    17    65 1   
    38    17    66 1   
    39    18    19 1   
    40    18    67 1   
    41    18    68 1   
    42    19    20 1   
    43    19    69 1   
    44    20    21 2   
    45    20   120 1   
    46    22    23 1   
    47    22    29 1   
    48    22    70 1   
    49    22   120 1   
    50    23    24 1   
    51    23    25 1   
    52    23    71 1   
    53    24    72 1   
    54    24    73 1   
    55    24    74 1   
    56    25    26 2   
    57    25    75 1   
    58    26    27 1   
    59    26    76 1   
    60    27    28 2   
    61    27    77 1   
    62    28    78 1   
    63    28    79 1   
    64    29    30 1   
    65    29    31 1   
    66    29    80 1   
    67    30    81 1   
    68    30    82 1   
    69    30    83 1   
    70    31    32 1   
    71    31    33 1   
    72    31    84 1   
    73    32    85 1   
    74    33    34 1   
    75    33    35 1   
    76    33    86 1   
    77    34    87 1   
    78    34    88 1   
    79    34    89 1   
    80    35    90 1   
    81    35    91 1   
    82    35   119 1   
    83    36    92 1   
    84    36    93 1   
    85    36    94 1   
    86    36   119 1   
    87    37    38 1   
    88    37    95 1   
    89    37   119 2   
    90    38    39 1   
    91    38    40 1   
    92    38    96 1   
    93    39    97 1   
    94    39    98 1   
    95    39    99 1   
    96    40    41 1   
    97    40    42 1   
    98    40   100 1   
    99    41   101 1   
   100    42    43 1   
   101    42   102 1   
   102    42   118 1   
   103    43   103 1   
   104    43   104 1   
   105    43   105 1   
   106    44    45 1   
   107    44   107 1   
   108    44   118 2   
   109    45    46 1   
   110    45   108 1   
   111    46   109 1   
   112    47    48 1   
   113    48    49 2   
   114    50   110 1   
   115    50   111 1   
   116    50   112 1   
   117    51    52 1   
   118    51   113 1   
   119    52   114 1   
   120    53   115 1   
   121    53   116 1   
   122    53   117 1   
   123   106   118 1   
@<TRIPOS>SUBSTRUCTURE
     1 7AO         1 TEMP              0 ****  ****    0 ROOT
