@<TRIPOS>MOLECULE
7AO
  122   123     1     0     0
SMALL
No Charge or Current Charge


@<TRIPOS>ATOM
      1 C5           9.3820     1.9130     1.2990 c6         1 7AO       0.212300
      2 C4          10.4260     0.9460     1.9240 c6         1 7AO      -0.088700
      3 C2          10.8630    -0.0040    -0.3930 c6         1 7AO      -0.211700
      4 C6           8.1380     2.1600     2.2020 c3         1 7AO      -0.120400
      5 N82        -15.5800     3.8830     3.2920 n1         1 7AO      -0.037000
      6 N81        -15.0020     2.9340     3.5470 n1         1 7AO       0.235000
      7 C8         -13.1510     1.6900     3.5810 ca         1 7AO       0.225000
      8 C7         -12.6260     1.2820     2.3410 ca         1 7AO      -0.049000
      9 C9         -12.2830     1.9510     4.6540 ca         1 7AO      -0.149000
     10 C40        -10.8960     1.8100     4.4880 ca         1 7AO      -0.092000
     11 C41        -10.3700     1.4040     3.2490 ca         1 7AO      -0.108000
     12 C36        -11.2310     1.1340     2.1540 ca         1 7AO      -0.129600
     13 C33        -10.7100     0.6920     0.8010 c          1 7AO       0.610700
     14 O5         -11.4560     0.4570    -0.1420 o          1 7AO      -0.592100
     15 N4          -9.3440     0.5630     0.6750 ns         1 7AO      -0.504900
     16 C34         -8.6630     0.1460    -0.5490 c3         1 7AO       0.106000
     17 C3          -7.1370     0.0850    -0.3510 c3         1 7AO      -0.117400
     18 C35         -6.3910    -0.3530    -1.6240 c3         1 7AO       0.127000
     19 N1          -4.9480    -0.4090    -1.4050 ns         1 7AO      -0.510900
     20 C1          -4.0480    -0.8630    -2.3220 c          1 7AO       0.645100
     21 O1          -4.3340    -1.2880    -3.4300 o          1 7AO      -0.543000
     22 C19         -1.6590    -1.1820    -2.5730 c3         1 7AO       0.207300
     23 C20         -1.0080     0.1140    -3.1690 c3         1 7AO      -0.046500
     24 C32         -1.9560     0.9060    -4.1000 c3         1 7AO      -0.086100
     25 C21         -0.4290     1.0370    -2.1000 c2         1 7AO      -0.195200
     26 C22          0.6610     1.8340    -2.1940 ce         1 7AO      -0.196000
     27 C23          1.5200     1.9730    -3.3770 ce         1 7AO      -0.188000
     28 C24          2.5880     2.7960    -3.4120 c2         1 7AO      -0.309000
     29 C18         -0.7300    -2.0330    -1.6400 c3         1 7AO      -0.097700
     30 C31         -1.4750    -3.2960    -1.1130 c3         1 7AO      -0.094100
     31 C17          0.6470    -2.3760    -2.3070 c3         1 7AO       0.167300
     32 O17          0.3960    -3.0900    -3.5270 oh         1 7AO      -0.659000
     33 C16          1.6710    -3.1830    -1.4360 c3         1 7AO      -0.083700
     34 C30          3.0080    -3.3970    -2.2040 c3         1 7AO      -0.086100
     35 C15          1.9270    -2.5250    -0.0440 c3         1 7AO      -0.038200
     36 C29          2.4440    -4.5340     1.4290 c3         1 7AO      -0.051900
     37 C13          4.2150    -2.7940     1.0640 c2         1 7AO      -0.196200
     38 C12          4.8620    -1.5230     0.5250 c3         1 7AO      -0.055500
     39 C28          6.3660    -1.7560     0.2230 c3         1 7AO      -0.096100
     40 C11          4.5700    -0.3160     1.4740 c3         1 7AO       0.184300
     41 O11          5.2780    -0.4910     2.7100 oh         1 7AO      -0.663000
     42 C10          4.9110     1.0920     0.8960 c3         1 7AO      -0.068500
     43 C27          4.0220     1.4840    -0.3070 c3         1 7AO      -0.087100
     44 C37          5.7700     3.0710     2.2890 c2         1 7AO      -0.259200
     45 C38          7.1340     3.1930     1.6400 c3         1 7AO       0.204500
     46 O7           7.6390     4.5110     1.8570 oh         1 7AO      -0.651000
     47 O2           8.8610     1.4170     0.0450 os         1 7AO      -0.470100
     48 C43          9.6360     0.7830    -0.8940 c          1 7AO       0.689100
     49 O4           9.3270     0.7900    -2.0780 o          1 7AO      -0.517000
     50 C25         10.4170    -1.4820    -0.1540 c3         1 7AO      -0.081100
     51 C42         11.5040     0.6060     0.8660 c6         1 7AO       0.178300
     52 O3          12.2340     1.7780     0.4920 oh         1 7AO      -0.655000
     53 C26         11.0720     1.4990     3.2320 c3         1 7AO      -0.082100
     54 H1           9.8730     2.8800     1.1070 h1         1 7AO       0.089700
     55 H2           9.9140     0.0210     2.2210 hc         1 7AO       0.063700
     56 H3          11.5850    -0.0550    -1.2200 hc         1 7AO       0.080700
     57 H4           7.6200     1.2040     2.3410 hc         1 7AO       0.062200
     58 H5           8.4380     2.4810     3.2050 hc         1 7AO       0.062200
     59 H8         -12.6840     2.2620     5.6160 ha         1 7AO       0.115000
     60 H9         -10.2250     2.0140     5.3210 ha         1 7AO       0.118000
     61 H10         -9.2910     1.3040     3.1590 ha         1 7AO       0.115000
     62 H11         -8.7850     0.7730     1.4930 hn         1 7AO       0.314500
     63 H12         -9.0360    -0.8450    -0.8430 h1         1 7AO       0.058200
     64 H13         -8.9040     0.8570    -1.3510 h1         1 7AO       0.058200
     65 H14         -6.7740     1.0740    -0.0430 hc         1 7AO       0.049200
     66 H15         -6.9070    -0.6160     0.4610 hc         1 7AO       0.049200
     67 H16         -6.7420    -1.3460    -1.9350 h1         1 7AO       0.056200
     68 H17         -6.5970     0.3560    -2.4380 h1         1 7AO       0.056200
     69 H18         -4.5650    -0.0980    -0.5230 hn         1 7AO       0.325500
     70 H19         -1.9580    -1.8300    -3.4090 h1         1 7AO       0.083700
     71 H20         -0.1970    -0.2340    -3.8180 hc         1 7AO       0.073700
     72 H21         -1.4130     1.7190    -4.5980 hc         1 7AO       0.041033
     73 H22         -2.3740     0.2550    -4.8760 hc         1 7AO       0.041033
     74 H23         -2.7830     1.3530    -3.5350 hc         1 7AO       0.041033
     75 H24         -0.9990     1.0360    -1.1680 ha         1 7AO       0.174000
     76 H25          0.9380     2.4430    -1.3310 ha         1 7AO       0.168000
     77 H26          1.2680     1.3850    -4.2610 ha         1 7AO       0.175000
     78 H27          3.2100     2.8850    -4.3040 ha         1 7AO       0.162500
     79 H28          2.8750     3.4080    -2.5570 ha         1 7AO       0.162500
     80 H29         -0.5190    -1.4030    -0.7680 hc         1 7AO       0.067700
     81 H30         -2.3990    -3.0210    -0.5890 hc         1 7AO       0.039033
     82 H31         -1.7450    -3.9690    -1.9370 hc         1 7AO       0.039033
     83 H32         -0.8630    -3.8560    -0.3980 hc         1 7AO       0.039033
     84 H33          1.1420    -1.4230    -2.5400 h1         1 7AO       0.076700
     85 H34          0.1690    -4.0100    -3.2760 ho         1 7AO       0.441000
     86 H35          1.2520    -4.1800    -1.2580 hc         1 7AO       0.045700
     87 H36          3.4830    -2.4360    -2.4340 hc         1 7AO       0.039033
     88 H37          3.7140    -3.9960    -1.6180 hc         1 7AO       0.039033
     89 H38          2.8450    -3.9300    -3.1480 hc         1 7AO       0.039033
     90 H39          2.2050    -1.4780    -0.2050 hc         1 7AO       0.045200
     91 H40          0.9880    -2.4830     0.5200 hc         1 7AO       0.045200
     92 H41          2.1840    -5.2640     0.6540 hc         1 7AO       0.037033
     93 H42          3.1880    -5.0060     2.0820 hc         1 7AO       0.037033
     94 H43          1.5470    -4.3520     2.0340 hc         1 7AO       0.037033
     95 H44          4.8730    -3.3690     1.7180 ha         1 7AO       0.178000
     96 H45          4.4040    -1.2990    -0.4420 hc         1 7AO       0.055700
     97 H46          6.9310    -1.9630     1.1400 hc         1 7AO       0.041033
     98 H47          6.4890    -2.6130    -0.4490 hc         1 7AO       0.041033
     99 H48          6.8150    -0.8860    -0.2690 hc         1 7AO       0.041033
    100 H49          3.4890    -0.3180     1.6810 h1         1 7AO       0.066700
    101 H50          5.4090     0.4140     3.0690 ho         1 7AO       0.452000
    102 H51          5.9380     1.0490     0.5210 hc         1 7AO       0.061700
    103 H52          2.9600     1.4570    -0.0340 hc         1 7AO       0.037033
    104 H53          4.2640     2.5000    -0.6410 hc         1 7AO       0.037033
    105 H54          4.1770     0.8130    -1.1610 hc         1 7AO       0.037033
    106 H55          3.8570     2.2000     2.4930 ha         1 7AO       0.167000
    107 H56          5.5730     3.8000     3.0760 ha         1 7AO       0.165000
    108 H57          7.0130     3.0220     0.5600 h1         1 7AO       0.090700
    109 H58          7.6760     4.6450     2.8280 ho         1 7AO       0.433000
    110 H59         10.0480    -1.9360    -1.0820 hc         1 7AO       0.047033
    111 H60         11.2520    -2.0990     0.2010 hc         1 7AO       0.047033
    112 H61          9.6080    -1.5570     0.5840 hc         1 7AO       0.047033
    113 H62         12.2000    -0.1300     1.3000 h1         1 7AO       0.044700
    114 H63         13.0570     1.4720     0.0490 ho         1 7AO       0.449000
    115 H64         10.3440     1.5680     4.0490 hc         1 7AO       0.042700
    116 H65         11.8790     0.8430     3.5810 hc         1 7AO       0.042700
    117 H66         11.5000     2.4980     3.0810 hc         1 7AO       0.042700
    118 C39          4.8150     2.1770     1.9670 c2         1 7AO      -0.171200
    119 C14          2.9670    -3.2420     0.8200 c2         1 7AO      -0.122400
    120 O19         -2.8020    -0.7900    -1.7770 os         1 7AO      -0.479100
    121 H7         -13.3140     1.0810     1.5230 ha         1 7AO       0.154000
    122 N8         -14.4870     1.8220     3.7450 n2         1 7AO      -0.438000
@<TRIPOS>BOND
     1     1     2 1   
     2     1     4 1   
     3     1    47 1   
     4     1    54 1   
     5     2    51 1   
     6     2    53 1   
     7     2    55 1   
     8     3    48 1   
     9     3    50 1   
    10     3    51 1   
    11     3    56 1   
    12     4    45 1   
    13     4    57 1   
    14     4    58 1   
    15     5     6 3   
    16     6   122 1   
    17     7     8 ar  
    18     7     9 ar  
    19     7   122 1   
    20     8    12 ar  
    21     8   121 1   
    22     9    10 ar  
    23     9    59 1   
    24    10    11 ar  
    25    10    60 1   
    26    11    12 ar  
    27    11    61 1   
    28    12    13 1   
    29    13    14 2   
    30    13    15 1   
    31    15    16 1   
    32    15    62 1   
    33    16    17 1   
    34    16    63 1   
    35    16    64 1   
    36    17    18 1   
    37    17    65 1   
    38    17    66 1   
    39    18    19 1   
    40    18    67 1   
    41    18    68 1   
    42    19    20 1   
    43    19    69 1   
    44    20    21 2   
    45    20   120 1   
    46    22    23 1   
    47    22    29 1   
    48    22    70 1   
    49    22   120 1   
    50    23    24 1   
    51    23    25 1   
    52    23    71 1   
    53    24    72 1   
    54    24    73 1   
    55    24    74 1   
    56    25    26 2   
    57    25    75 1   
    58    26    27 1   
    59    26    76 1   
    60    27    28 2   
    61    27    77 1   
    62    28    78 1   
    63    28    79 1   
    64    29    30 1   
    65    29    31 1   
    66    29    80 1   
    67    30    81 1   
    68    30    82 1   
    69    30    83 1   
    70    31    32 1   
    71    31    33 1   
    72    31    84 1   
    73    32    85 1   
    74    33    34 1   
    75    33    35 1   
    76    33    86 1   
    77    34    87 1   
    78    34    88 1   
    79    34    89 1   
    80    35    90 1   
    81    35    91 1   
    82    35   119 1   
    83    36    92 1   
    84    36    93 1   
    85    36    94 1   
    86    36   119 1   
    87    37    38 1   
    88    37    95 1   
    89    37   119 2   
    90    38    39 1   
    91    38    40 1   
    92    38    96 1   
    93    39    97 1   
    94    39    98 1   
    95    39    99 1   
    96    40    41 1   
    97    40    42 1   
    98    40   100 1   
    99    41   101 1   
   100    42    43 1   
   101    42   102 1   
   102    42   118 1   
   103    43   103 1   
   104    43   104 1   
   105    43   105 1   
   106    44    45 1   
   107    44   107 1   
   108    44   118 2   
   109    45    46 1   
   110    45   108 1   
   111    46   109 1   
   112    47    48 1   
   113    48    49 2   
   114    50   110 1   
   115    50   111 1   
   116    50   112 1   
   117    51    52 1   
   118    51   113 1   
   119    52   114 1   
   120    53   115 1   
   121    53   116 1   
   122    53   117 1   
   123   106   118 1   
@<TRIPOS>SUBSTRUCTURE
     1 7AO         1 TEMP              0 ****  ****    0 ROOT
