@<TRIPOS>MOLECULE
7AP
   29    30     1     0     0
SMALL
No Charge or Current Charge


@<TRIPOS>ATOM
      1 N1           2.2010    -7.4510    -4.6680 nb         1 7AP      -0.279000
      2 C2           2.6200    -7.1730    -5.9080 ca         1 7AP       0.452900
      3 N2           3.5300    -8.0180    -6.4350 nv         1 7AP      -1.069900
      4 N3           2.2530    -6.1630    -6.6910 nb         1 7AP      -0.355000
      5 C4           1.3550    -5.3320    -6.1580 ca         1 7AP       0.465900
      6 N4           0.9940    -4.3050    -6.9820 nv         1 7AP      -1.056900
      7 C4A          0.8110    -5.4990    -4.8520 ca         1 7AP       0.024000
      8 C8A          1.2880    -6.6260    -4.1080 ca         1 7AP       0.119000
      9 N5          -0.1160    -4.6410    -4.3350 nb         1 7AP      -0.577000
     10 C6          -0.5690    -4.8900    -3.0770 ca         1 7AP       0.255300
     11 C7          -0.0940    -6.0010    -2.3530 ca         1 7AP       0.104900
     12 N8           0.8190    -6.8530    -2.8610 nb         1 7AP      -0.113000
     13 C1          -1.6170    -3.9430    -2.4480 c3         1 7AP       0.104000
     14 O1          -2.5630    -3.4350    -3.4200 oh         1 7AP      -0.629000
     15 C5          -0.9700    -2.7640    -1.6480 c3         1 7AP       0.143300
     16 O2          -0.1430    -3.2740    -0.5920 oh         1 7AP      -0.648000
     17 C3          -0.1230    -1.7980    -2.5060 c3         1 7AP      -0.082100
     18 H77         -0.4500    -6.2140    -1.3470 h4         1 7AP       0.024100
     19 H1'         -2.1790    -4.5420    -1.7190 h1         1 7AP       0.027700
     20 H2'         -1.7860    -2.1750    -1.2060 h1         1 7AP       0.020700
     21 H3'1         0.7490    -2.3070    -2.9330 hc         1 7AP       0.050033
     22 H3'2        -0.7160    -1.3800    -3.3270 hc         1 7AP       0.050033
     23 H3'3         0.2390    -0.9630    -1.8950 hc         1 7AP       0.050033
     24 HO1         -0.7290    -3.4610     0.1740 ho         1 7AP       0.438000
     25 HO2         -3.2590    -2.9470    -2.9280 ho         1 7AP       0.441000
     26 HN1          4.0440    -7.7060    -7.2550 hn         1 7AP       0.507500
     27 HN2          1.1580    -4.4180    -7.9780 hn         1 7AP       0.513000
     28 HN3          4.0220    -8.6460    -5.8050 hn         1 7AP       0.507500
     29 HN4          0.1670    -3.7790    -6.7110 hn         1 7AP       0.513000
@<TRIPOS>BOND
     1     1     2 ar  
     2     1     8 ar  
     3     2     3 1   
     4     2     4 ar  
     5     3    26 1   
     6     3    28 1   
     7     4     5 ar  
     8     5     6 1   
     9     5     7 ar  
    10     6    27 1   
    11     6    29 1   
    12     7     8 ar  
    13     7     9 ar  
    14     8    12 ar  
    15     9    10 ar  
    16    10    11 ar  
    17    10    13 1   
    18    11    12 ar  
    19    11    18 1   
    20    13    14 1   
    21    13    15 1   
    22    13    19 1   
    23    14    25 1   
    24    15    16 1   
    25    15    17 1   
    26    15    20 1   
    27    16    24 1   
    28    17    21 1   
    29    17    22 1   
    30    17    23 1   
@<TRIPOS>SUBSTRUCTURE
     1 7AP         1 TEMP              0 ****  ****    0 ROOT
