@<TRIPOS>MOLECULE
7AP
   29    30     1     0     0
SMALL
bcc


@<TRIPOS>ATOM
      1 N1           2.2540    -7.3490    -4.5610 nb         1 7AP      -0.805000
      2 C2           2.6260    -7.1040    -5.8090 ca         1 7AP       0.978900
      3 N2           3.5520    -7.9080    -6.3460 nv         1 7AP      -0.959500
      4 N3           2.1730    -6.1230    -6.6240 nb         1 7AP      -0.881000
      5 C4           1.2560    -5.3110    -6.1490 ca         1 7AP       0.728900
      6 N4           0.7760    -4.3240    -6.8960 nv         1 7AP      -0.946500
      7 C4A          0.7580    -5.4790    -4.8040 ca         1 7AP       0.024000
      8 C8A          1.3170    -6.5330    -4.0620 ca         1 7AP       0.645000
      9 N5          -0.1760    -4.6620    -4.3220 nb         1 7AP      -0.577000
     10 C6          -0.5830    -4.8690    -3.0920 ca         1 7AP       0.255300
     11 C7          -0.0300    -5.9280    -2.3410 ca         1 7AP       0.367900
     12 N8           0.8900    -6.7380    -2.7990 nb         1 7AP      -0.639000
     13 C1          -1.6090    -3.9580    -2.4830 c3         1 7AP       0.080800
     14 O1          -2.4520    -3.4860    -3.4980 oh         1 7AP      -0.566800
     15 C5          -0.9470    -2.7950    -1.7080 c3         1 7AP       0.120100
     16 O2          -0.1900    -3.2960    -0.6280 oh         1 7AP      -0.585800
     17 C3          -0.0360    -1.9390    -2.5630 c3         1 7AP      -0.082100
     18 H77         -0.3840    -6.1110    -1.3320 h4         1 7AP       0.024100
     19 H1'         -2.1790    -4.5430    -1.7440 h1         1 7AP       0.027700
     20 H2'         -1.7710    -2.1650    -1.3390 h1         1 7AP       0.020700
     21 H3'1         0.8710    -2.4730    -2.8450 hc         1 7AP       0.050033
     22 H3'2        -0.5430    -1.6320    -3.4760 hc         1 7AP       0.050033
     23 H3'3         0.2560    -1.0380    -2.0230 hc         1 7AP       0.050033
     24 HO1         -0.7900    -3.7140    -0.0010 ho         1 7AP       0.399000
     25 HO2         -3.1320    -2.9420    -3.0880 ho         1 7AP       0.402000
     26 HN1          3.8910    -7.7480    -7.2780 hn         1 7AP       0.452300
     27 HN2          1.1010    -4.1850    -7.8370 hn         1 7AP       0.457800
     28 HN3          3.9630    -8.6440    -5.8000 hn         1 7AP       0.452300
     29 HN4          0.0750    -3.7060    -6.5240 hn         1 7AP       0.457800
@<TRIPOS>BOND
     1     1     2 ar  
     2     1     8 ar  
     3     2     3 1   
     4     2     4 ar  
     5     3    26 1   
     6     3    28 1   
     7     4     5 ar  
     8     5     6 1   
     9     5     7 ar  
    10     6    27 1   
    11     6    29 1   
    12     7     8 ar  
    13     7     9 ar  
    14     8    12 ar  
    15     9    10 ar  
    16    10    11 ar  
    17    10    13 1   
    18    11    12 ar  
    19    11    18 1   
    20    13    14 1   
    21    13    15 1   
    22    13    19 1   
    23    14    25 1   
    24    15    16 1   
    25    15    17 1   
    26    15    20 1   
    27    16    24 1   
    28    17    21 1   
    29    17    22 1   
    30    17    23 1   
@<TRIPOS>SUBSTRUCTURE
     1 7AP         1 TEMP              0 ****  ****    0 ROOT
