@<TRIPOS>MOLECULE
7AR
   34    36     1     0     0
SMALL
bcc


@<TRIPOS>ATOM
      1 C10         -2.0430    -2.9970    -1.5460 ca         1 7AR      -0.135500
      2 N12         -1.2330     0.8000     0.3140 n          1 7AR      -0.459400
      3 C13         -0.5700     0.1020     1.3050 c          1 7AR       0.736100
      4 C15          0.8350    -0.0320     0.8420 ca         1 7AR      -0.126100
      5 C17          2.1280     0.6500    -1.0720 ca         1 7AR      -0.062500
      6 C20          3.1220    -0.6090     0.7510 ca         1 7AR       0.019900
      7 C21          1.9100    -0.6480     1.4360 ca         1 7AR      -0.062500
      8 C02         -2.8030     2.7160     0.3440 c          1 7AR       0.939600
      9 O03         -3.9360     3.1160     0.0230 o          1 7AR      -0.813300
     10 C04         -2.6300     1.1710     0.3720 c3         1 7AR      -0.034300
     11 C05         -3.4550     0.4250    -0.6840 c3         1 7AR      -0.038100
     12 C06         -3.1830    -1.0530    -0.6620 ca         1 7AR      -0.058300
     13 C07         -3.7380    -1.8630     0.3280 ca         1 7AR      -0.129500
     14 C08         -3.4540    -3.2190     0.3810 ca         1 7AR      -0.135500
     15 C09         -2.6030    -3.7920    -0.5560 ca         1 7AR      -0.151000
     16 C11         -2.3320    -1.6390    -1.5950 ca         1 7AR      -0.129500
     17 O14         -1.0480    -0.3050     2.3330 o          1 7AR      -0.565000
     18 C16          0.9410     0.6010    -0.3810 ca         1 7AR      -0.126100
     19 C18          3.2290     0.0320    -0.4860 ca         1 7AR       0.019900
     20 CL1          4.7350     0.0670    -1.3090 cl         1 7AR      -0.095400
     21 CL2          4.4940    -1.3630     1.4540 cl         1 7AR      -0.095400
     22 C23         -0.3960     1.1430    -0.7310 c          1 7AR       0.736100
     23 O24         -0.7110     1.7370    -1.7300 o          1 7AR      -0.565000
     24 H1          -1.3820    -3.4340    -2.2840 ha         1 7AR       0.116000
     25 H2           2.2160     1.1460    -2.0290 ha         1 7AR       0.165500
     26 H3           1.8330    -1.1460     2.3930 ha         1 7AR       0.165500
     27 H5          -2.9770     0.8410     1.3570 h1         1 7AR       0.061700
     28 H6          -4.5060     0.6180    -0.4720 hc         1 7AR       0.069200
     29 H7          -3.2530     0.8290    -1.6770 hc         1 7AR       0.069200
     30 H8          -4.4020    -1.4240     1.0640 ha         1 7AR       0.133000
     31 H9          -3.8990    -3.8320     1.1550 ha         1 7AR       0.116000
     32 H10         -2.3810    -4.8510    -0.5160 ha         1 7AR       0.113000
     33 H11         -1.8930    -1.0270    -2.3760 ha         1 7AR       0.133000
     34 O01         -1.8220     3.3910     0.6890 o          1 7AR      -0.813300
@<TRIPOS>BOND
     1     1    15 ar  
     2     1    16 ar  
     3     1    24 1   
     4     2     3 1   
     5     2    10 1   
     6     2    22 1   
     7     3     4 1   
     8     3    17 2   
     9     4     7 ar  
    10     4    18 ar  
    11     5    18 ar  
    12     5    19 ar  
    13     5    25 1   
    14     6     7 ar  
    15     6    19 ar  
    16     6    21 1   
    17     7    26 1   
    18     8     9 1   
    19     8    10 1   
    20     8    34 1   
    21    10    11 1   
    22    10    27 1   
    23    11    12 1   
    24    11    28 1   
    25    11    29 1   
    26    12    13 ar  
    27    12    16 ar  
    28    13    14 ar  
    29    13    30 1   
    30    14    15 ar  
    31    14    31 1   
    32    15    32 1   
    33    16    33 1   
    34    18    22 1   
    35    19    20 1   
    36    22    23 2   
@<TRIPOS>SUBSTRUCTURE
     1 7AR         1 TEMP              0 ****  ****    0 ROOT
