@<TRIPOS>MOLECULE
7AR
   34    36     1     0     0
SMALL
No Charge or Current Charge


@<TRIPOS>ATOM
      1 C10         -2.1040    -3.1480    -1.3480 ca         1 7AR      -0.117500
      2 N12         -1.1650     0.8400     0.2400 n          1 7AR      -0.325400
      3 C13         -0.5490    -0.0660     1.1090 c          1 7AR       0.593600
      4 C15          0.8800    -0.1000     0.6830 ca         1 7AR      -0.126100
      5 C17          2.2910     0.9630    -0.9910 ca         1 7AR      -0.044500
      6 C20          3.2200    -0.6770     0.5890 ca         1 7AR       0.111500
      7 C21          1.9540    -0.8450     1.1910 ca         1 7AR      -0.044500
      8 C02         -2.8830     2.7370     0.2760 c          1 7AR       0.729000
      9 O03         -3.6350     3.1930    -0.5760 o          1 7AR      -0.708000
     10 C04         -2.6140     1.1990     0.3240 c3         1 7AR      -0.034300
     11 C05         -3.4580     0.3850    -0.6960 c3         1 7AR      -0.038100
     12 C06         -3.2270    -1.1180    -0.5870 ca         1 7AR      -0.058300
     13 C07         -3.8890    -1.8680     0.4040 ca         1 7AR      -0.111500
     14 C08         -3.6620    -3.2510     0.5170 ca         1 7AR      -0.117500
     15 C09         -2.7690    -3.8910    -0.3590 ca         1 7AR      -0.133000
     16 C11         -2.3330    -1.7660    -1.4630 ca         1 7AR      -0.111500
     17 O14         -1.0630    -0.6840     2.0300 o          1 7AR      -0.489500
     18 C16          1.0440     0.7800    -0.3770 ca         1 7AR      -0.126100
     19 C18          3.3880     0.2240    -0.4980 ca         1 7AR       0.111500
     20 Cl1          4.9660     0.4400    -1.2580 cl         1 7AR      -0.187000
     21 Cl2          4.5840    -1.6070     1.2130 cl         1 7AR      -0.187000
     22 C23         -0.2750     1.4090    -0.6780 c          1 7AR       0.593600
     23 O24         -0.5240     2.2240    -1.5550 o          1 7AR      -0.489500
     24 H1          -1.4110    -3.6420    -2.0260 ha         1 7AR       0.098000
     25 H2           2.4120     1.6540    -1.8230 ha         1 7AR       0.147500
     26 H3           1.8180    -1.5320     2.0230 ha         1 7AR       0.147500
     27 H5          -2.9630     0.8990     1.3200 h1         1 7AR       0.061700
     28 H6          -4.5210     0.6060    -0.5400 hc         1 7AR       0.069200
     29 H7          -3.2220     0.7270    -1.7110 hc         1 7AR       0.069200
     30 H8          -4.5770    -1.3790     1.0900 ha         1 7AR       0.115000
     31 H9          -4.1750    -3.8250     1.2850 ha         1 7AR       0.098000
     32 H10         -2.5920    -4.9600    -0.2700 ha         1 7AR       0.095000
     33 H11         -1.8100    -1.1980    -2.2300 ha         1 7AR       0.115000
     34 O01         -2.3430     3.4300     1.1280 o          1 7AR      -0.708000
@<TRIPOS>BOND
     1     1    15 ar  
     2     1    16 ar  
     3     1    24 1   
     4     2     3 1   
     5     2    10 1   
     6     2    22 1   
     7     3     4 1   
     8     3    17 2   
     9     4     7 ar  
    10     4    18 ar  
    11     5    18 ar  
    12     5    19 ar  
    13     5    25 1   
    14     6     7 ar  
    15     6    19 ar  
    16     6    21 1   
    17     7    26 1   
    18     8     9 1   
    19     8    10 1   
    20     8    34 1   
    21    10    11 1   
    22    10    27 1   
    23    11    12 1   
    24    11    28 1   
    25    11    29 1   
    26    12    13 ar  
    27    12    16 ar  
    28    13    14 ar  
    29    13    30 1   
    30    14    15 ar  
    31    14    31 1   
    32    15    32 1   
    33    16    33 1   
    34    18    22 1   
    35    19    20 1   
    36    22    23 2   
@<TRIPOS>SUBSTRUCTURE
     1 7AR         1 TEMP              0 ****  ****    0 ROOT
