@<TRIPOS>MOLECULE
7AU
   56    60     1     0     0
SMALL
No Charge or Current Charge


@<TRIPOS>ATOM
      1 CAY         -5.6400     0.1550    -1.3210 c6         1 7AU       0.159800
      2 CAZ         -6.8900    -0.7860    -1.2910 c6         1 7AU       0.143300
      3 NBA         -7.7300    -0.5910    -0.0730 n7         1 7AU      -0.841400
      4 CBB         -6.9080    -0.7550     1.1620 c6         1 7AU       0.143300
      5 CBC         -5.6590     0.1870     1.1860 c6         1 7AU       0.159800
      6 NAX         -4.8320     0.0830    -0.0600 nh         1 7AU      -0.785400
      7 CAU         -3.4670     0.4610    -0.0400 ca         1 7AU       0.310000
      8 CAV         -2.5960    -0.1050     0.9080 ca         1 7AU      -0.170500
      9 CAW         -1.2380     0.2550     0.9430 ca         1 7AU      -0.055000
     10 CAT         -2.9520     1.3970    -0.9580 ca         1 7AU      -0.170500
     11 CAS         -1.5940     1.7600    -0.9260 ca         1 7AU      -0.055000
     12 CAR         -0.7250     1.1880     0.0210 ca         1 7AU      -0.091800
     13 CAH          0.6880     1.5710     0.0520 cc         1 7AU       0.028700
     14 NAG          1.2310     2.8600     0.0760 na         1 7AU      -0.178400
     15 CBD          0.5040     4.1420     0.1000 c3         1 7AU       0.064900
     16 CAF          2.6180     2.8130     0.1210 ca         1 7AU       0.372500
     17 NAD          3.4990     3.8370     0.1070 nb         1 7AU      -0.682000
     18 CAC          4.8160     3.5270     0.0890 ca         1 7AU       0.361900
     19 CAB          5.2870     2.2060     0.0450 ca         1 7AU      -0.194000
     20 CAA          4.3700     1.1450     0.0540 ca         1 7AU       0.197000
     21 Cl1          5.0000    -0.4860    -0.1520 cl         1 7AU      -0.177000
     22 CAE          3.0000     1.4790     0.1350 ca         1 7AU      -0.115800
     23 CAI          1.7610     0.6940     0.1540 cd         1 7AU      -0.063400
     24 CAJ          1.6730    -0.7800     0.0940 ca         1 7AU      -0.008800
     25 CAK          0.7970    -1.4150    -0.8110 ca         1 7AU      -0.097500
     26 CAL          0.6800    -2.8160    -0.8350 ca         1 7AU      -0.092500
     27 CAO          2.3980    -1.5770     1.0010 ca         1 7AU      -0.097500
     28 CAN          2.2820    -2.9770     0.9810 ca         1 7AU      -0.092500
     29 CAM          1.4250    -3.6070     0.0590 ca         1 7AU      -0.089300
     30 CAP          1.2930    -5.1240     0.0410 c3         1 7AU       0.208900
     31 OAQ          2.2500    -5.6970    -0.8560 oh         1 7AU      -0.652000
     32 H1          -5.0200    -0.1250    -2.1850 h1         1 7AU       0.041950
     33 H2          -5.9800     1.1890    -1.4840 h1         1 7AU       0.041950
     34 H3          -7.4950    -0.6130    -2.1930 h1         1 7AU       0.062450
     35 H4          -6.5440    -1.8300    -1.3290 h1         1 7AU       0.062450
     36 H5          -8.0870     0.3730    -0.0880 hn         1 7AU       0.404000
     37 H7          -7.5270    -0.5590     2.0500 h1         1 7AU       0.062450
     38 H8          -6.5630    -1.7970     1.2320 h1         1 7AU       0.062450
     39 H9          -6.0020     1.2250     1.3110 h1         1 7AU       0.041950
     40 H10         -5.0610    -0.0600     2.0750 h1         1 7AU       0.041950
     41 H11         -2.9690    -0.8380     1.6170 ha         1 7AU       0.116000
     42 H12         -0.5840    -0.1920     1.6880 ha         1 7AU       0.119500
     43 H13         -3.6010     1.8580    -1.6960 ha         1 7AU       0.116000
     44 H14         -1.2150     2.4820    -1.6460 ha         1 7AU       0.119500
     45 H15          1.0120     4.8500     0.7660 h1         1 7AU       0.056700
     46 H16          0.4670     4.5610    -0.9130 h1         1 7AU       0.056700
     47 H17         -0.5180     3.9860     0.4650 h1         1 7AU       0.056700
     48 H18          5.5120     4.3650     0.0770 h4         1 7AU       0.022100
     49 H19          6.3540     2.0140    -0.0160 ha         1 7AU       0.136000
     50 H20          0.2180    -0.8240    -1.5160 ha         1 7AU       0.117000
     51 H21          0.0090    -3.2860    -1.5500 ha         1 7AU       0.112000
     52 H22          3.0350    -1.1060     1.7450 ha         1 7AU       0.117000
     53 H23          2.8540    -3.5740     1.6880 ha         1 7AU       0.112000
     54 H24          1.4430    -5.5140     1.0570 h1         1 7AU       0.021700
     55 H25          0.2740    -5.3960    -0.2680 h1         1 7AU       0.021700
     56 H26          2.1170    -6.6700    -0.8250 ho         1 7AU       0.438000
@<TRIPOS>BOND
     1     1     2 1   
     2     1     6 1   
     3     1    32 1   
     4     1    33 1   
     5     2     3 1   
     6     2    34 1   
     7     2    35 1   
     8     3     4 1   
     9     3    36 1   
    10     4     5 1   
    11     4    37 1   
    12     4    38 1   
    13     5     6 1   
    14     5    39 1   
    15     5    40 1   
    16     6     7 1   
    17     7     8 ar  
    18     7    10 ar  
    19     8     9 ar  
    20     8    41 1   
    21     9    12 ar  
    22     9    42 1   
    23    10    11 ar  
    24    10    43 1   
    25    11    12 ar  
    26    11    44 1   
    27    12    13 1   
    28    13    14 1   
    29    13    23 2   
    30    14    15 1   
    31    14    16 1   
    32    15    45 1   
    33    15    46 1   
    34    15    47 1   
    35    16    17 ar  
    36    16    22 ar  
    37    17    18 ar  
    38    18    19 ar  
    39    18    48 1   
    40    19    20 ar  
    41    19    49 1   
    42    20    21 1   
    43    20    22 ar  
    44    22    23 1   
    45    23    24 1   
    46    24    25 ar  
    47    24    27 ar  
    48    25    26 ar  
    49    25    50 1   
    50    26    29 ar  
    51    26    51 1   
    52    27    28 ar  
    53    27    52 1   
    54    28    29 ar  
    55    28    53 1   
    56    29    30 1   
    57    30    31 1   
    58    30    54 1   
    59    30    55 1   
    60    31    56 1   
@<TRIPOS>SUBSTRUCTURE
     1 7AU         1 TEMP              0 ****  ****    0 ROOT
