@<TRIPOS>MOLECULE
7AU
   56    60     1     0     0
SMALL
abcg2


@<TRIPOS>ATOM
      1 CAY         -5.5970     0.3560    -1.1970 c6         1 7AU       0.159800
      2 CAZ         -6.9010    -0.4340    -1.2080 c6         1 7AU       0.143300
      3 NBA         -7.6590    -0.3510     0.0250 n7         1 7AU      -0.841400
      4 CBB         -6.8130    -0.7010     1.1500 c6         1 7AU       0.143300
      5 CBC         -5.5160     0.0940     1.2090 c6         1 7AU       0.159800
      6 NAX         -4.7850    -0.0080    -0.0500 nh         1 7AU      -0.785400
      7 CAU         -3.4510     0.3810    -0.0500 ca         1 7AU       0.310000
      8 CAV         -2.5850    -0.0390     0.9740 ca         1 7AU      -0.170500
      9 CAW         -1.2510     0.3160     0.9780 ca         1 7AU      -0.055000
     10 CAT         -2.8970     1.1680    -1.0690 ca         1 7AU      -0.170500
     11 CAS         -1.5550     1.5130    -1.0610 ca         1 7AU      -0.055000
     12 CAR         -0.7080     1.1060    -0.0350 ca         1 7AU      -0.091800
     13 CAH          0.7150     1.4560    -0.0240 cc         1 7AU       0.028700
     14 NAG          1.1530     2.7610    -0.0300 na         1 7AU      -0.178400
     15 CBD          0.3560     3.9530     0.1630 c3         1 7AU       0.064900
     16 CAF          2.5140     2.7620     0.0080 ca         1 7AU       0.372500
     17 NAD          3.2640     3.8490     0.0330 nb         1 7AU      -0.682000
     18 CAC          4.5700     3.6360     0.0410 ca         1 7AU       0.361900
     19 CAB          5.1550     2.3690     0.0110 ca         1 7AU      -0.194000
     20 CAA          4.3410     1.2510    -0.0110 ca         1 7AU       0.197000
     21 CL1          5.0570    -0.3160    -0.0930 cl         1 7AU      -0.177000
     22 CAE          2.9590     1.4170     0.0150 ca         1 7AU      -0.115800
     23 CAI          1.7900     0.5960     0.0020 cd         1 7AU      -0.063400
     24 CAJ          1.6890    -0.8700     0.0030 ca         1 7AU      -0.008800
     25 CAK          0.9940    -1.5350    -1.0060 ca         1 7AU      -0.097500
     26 CAL          0.8630    -2.9160    -0.9850 ca         1 7AU      -0.092500
     27 CAO          2.2450    -1.6270     1.0330 ca         1 7AU      -0.097500
     28 CAN          2.1140    -3.0060     1.0500 ca         1 7AU      -0.092500
     29 CAM          1.4170    -3.6710     0.0440 ca         1 7AU      -0.089300
     30 CAP          1.3110    -5.1680     0.0480 c3         1 7AU       0.208900
     31 OAQ          2.4690    -5.6960    -0.5700 oh         1 7AU      -0.652000
     32 H1          -5.0540     0.1270    -2.1150 h1         1 7AU       0.041950
     33 H2          -5.8170     1.4350    -1.2090 h1         1 7AU       0.041950
     34 H3          -7.5170    -0.0850    -2.0390 h1         1 7AU       0.062450
     35 H4          -6.6720    -1.4880    -1.3980 h1         1 7AU       0.062450
     36 H5          -8.0050     0.5950     0.1450 hn         1 7AU       0.404000
     37 H7          -7.3640    -0.5530     2.0800 h1         1 7AU       0.062450
     38 H8          -6.5740    -1.7670     1.0830 h1         1 7AU       0.062450
     39 H9          -5.7440     1.1480     1.4320 h1         1 7AU       0.041950
     40 H10         -4.9130    -0.2850     2.0310 h1         1 7AU       0.041950
     41 H11         -2.9480    -0.6670     1.7760 ha         1 7AU       0.116000
     42 H12         -0.6190    -0.0340     1.7840 ha         1 7AU       0.119500
     43 H13         -3.5070     1.5330    -1.8830 ha         1 7AU       0.116000
     44 H14         -1.1690     2.1080    -1.8800 ha         1 7AU       0.119500
     45 H15          0.2790     4.2030     1.2210 h1         1 7AU       0.056700
     46 H16          0.8180     4.7840    -0.3630 h1         1 7AU       0.056700
     47 H17         -0.6430     3.8060    -0.2330 h1         1 7AU       0.056700
     48 H18          5.2070     4.5120     0.0630 h4         1 7AU       0.022100
     49 H19          6.2320     2.2740    -0.0010 ha         1 7AU       0.136000
     50 H20          0.5540    -0.9680    -1.8160 ha         1 7AU       0.117000
     51 H21          0.3210    -3.4110    -1.7820 ha         1 7AU       0.112000
     52 H22          2.7700    -1.1300     1.8390 ha         1 7AU       0.117000
     53 H23          2.5480    -3.5710     1.8660 ha         1 7AU       0.112000
     54 H24          1.2150    -5.5230     1.0810 h1         1 7AU       0.021700
     55 H25          0.4000    -5.4720    -0.4810 h1         1 7AU       0.021700
     56 H26          2.4120    -6.6560    -0.5280 ho         1 7AU       0.438000
@<TRIPOS>BOND
     1     1     2 1   
     2     1     6 1   
     3     1    32 1   
     4     1    33 1   
     5     2     3 1   
     6     2    34 1   
     7     2    35 1   
     8     3     4 1   
     9     3    36 1   
    10     4     5 1   
    11     4    37 1   
    12     4    38 1   
    13     5     6 1   
    14     5    39 1   
    15     5    40 1   
    16     6     7 1   
    17     7     8 ar  
    18     7    10 ar  
    19     8     9 ar  
    20     8    41 1   
    21     9    12 ar  
    22     9    42 1   
    23    10    11 ar  
    24    10    43 1   
    25    11    12 ar  
    26    11    44 1   
    27    12    13 1   
    28    13    14 1   
    29    13    23 2   
    30    14    15 1   
    31    14    16 1   
    32    15    45 1   
    33    15    46 1   
    34    15    47 1   
    35    16    17 ar  
    36    16    22 ar  
    37    17    18 ar  
    38    18    19 ar  
    39    18    48 1   
    40    19    20 ar  
    41    19    49 1   
    42    20    21 1   
    43    20    22 ar  
    44    22    23 1   
    45    23    24 1   
    46    24    25 ar  
    47    24    27 ar  
    48    25    26 ar  
    49    25    50 1   
    50    26    29 ar  
    51    26    51 1   
    52    27    28 ar  
    53    27    52 1   
    54    28    29 ar  
    55    28    53 1   
    56    29    30 1   
    57    30    31 1   
    58    30    54 1   
    59    30    55 1   
    60    31    56 1   
@<TRIPOS>SUBSTRUCTURE
     1 7AU         1 TEMP              0 ****  ****    0 ROOT
