@<TRIPOS>MOLECULE
7AV
   55    59     1     0     0
SMALL
bcc


@<TRIPOS>ATOM
      1 C1           2.5680     0.4560    -0.3530 ca         1 7AV      -0.055000
      2 C2           3.1740     0.0400     0.8380 ca         1 7AV      -0.148500
      3 C3           2.5680     0.3880     2.0460 ca         1 7AV      -0.092000
      4 C12         -2.3860     3.5110     1.1370 ca         1 7AV      -0.181600
      5 C13         -2.4610     4.8680     1.4140 ca         1 7AV      -0.055000
      6 C14         -3.5830     5.6020     1.0510 ca         1 7AV      -0.170000
      7 C15         -4.6440     4.9580     0.4340 ca         1 7AV      -0.076000
      8 C16         -4.5960     3.5950     0.1700 ca         1 7AV      -0.222000
      9 C17         -3.4630     2.8670     0.5190 ca         1 7AV       0.167100
     10 C18          4.4170    -0.7420     0.7990 cc         1 7AV       0.469800
     11 C19          5.0500    -1.2820     1.8750 cd         1 7AV      -0.225400
     12 C21          6.1010    -1.6730    -0.2790 cd         1 7AV       0.730300
     13 C24          8.0910    -2.8420    -1.0930 c3         1 7AV       0.221100
     14 C26         -4.2620     0.8440    -0.4720 c3         1 7AV       0.189700
     15 C27         -3.6530    -0.4830    -0.8100 ca         1 7AV      -0.097300
     16 C28         -4.0100    -1.6360    -0.1230 ca         1 7AV      -0.093000
     17 C29         -3.4150    -2.8550    -0.4180 ca         1 7AV      -0.124000
     18 C30         -2.4490    -2.9080    -1.4100 ca         1 7AV       0.041400
     19 C4           1.3950     1.1270     2.1020 ca         1 7AV      -0.141000
     20 C5           1.4040     1.1930    -0.3100 ca         1 7AV      -0.150300
     21 C6           0.8150     1.5320     0.9060 ca         1 7AV       0.074600
     22 N7          -0.3420     2.2900     0.6710 n          1 7AV      -0.364000
     23 C8          -0.4090     2.6590    -0.7530 c5         1 7AV       0.106000
     24 C9           0.5660     1.7000    -1.4440 c5         1 7AV      -0.037100
     25 C10         -1.2080     2.7210     1.6150 c          1 7AV       0.707700
     26 O11         -1.0590     2.5080     2.8080 o          1 7AV      -0.577100
     27 S20          6.4740    -2.1200     1.3680 ss         1 7AV      -0.265300
     28 N22          5.0160    -0.9690    -0.4130 nc         1 7AV      -0.750000
     29 N23          6.9030    -2.0510    -1.2820 nu         1 7AV      -0.883900
     30 O25         -3.3020     1.5470     0.3070 os         1 7AV      -0.316900
     31 C31         -2.0720    -1.7700    -2.1100 ca         1 7AV      -0.124000
     32 C32         -2.6810    -0.5650    -1.8030 ca         1 7AV      -0.093000
     33 CL3         -1.6970    -4.4230    -1.7870 cl         1 7AV      -0.107400
     34 H1           3.0130     0.2000    -1.3050 ha         1 7AV       0.152000
     35 H2           3.0200     0.0900     2.9830 ha         1 7AV       0.131000
     36 H3          -1.6300     5.3580     1.9050 ha         1 7AV       0.144000
     37 H4          -3.6290     6.6630     1.2570 ha         1 7AV       0.139000
     38 H5          -5.5280     5.5150     0.1530 ha         1 7AV       0.132000
     39 H6          -5.4470     3.1170    -0.2970 ha         1 7AV       0.137000
     40 H7           4.7770    -1.2520     2.9170 h4         1 7AV       0.177000
     41 H8           8.5620    -2.9960    -2.0590 h1         1 7AV       0.043367
     42 H9           8.8120    -2.3410    -0.4430 h1         1 7AV       0.043367
     43 H10          7.8650    -3.8230    -0.6660 h1         1 7AV       0.043367
     44 H11         -4.4910     1.3990    -1.3870 h1         1 7AV       0.044200
     45 H12         -5.1930     0.7200     0.0880 h1         1 7AV       0.044200
     46 H13         -4.7620    -1.5920     0.6540 ha         1 7AV       0.136000
     47 H14         -3.7000    -3.7480     0.1210 ha         1 7AV       0.149500
     48 H15          0.9680     1.3750     3.0590 ha         1 7AV       0.166000
     49 H16         -1.4190     2.5670    -1.1400 h1         1 7AV       0.051700
     50 H17         -0.0920     3.6970    -0.8740 h1         1 7AV       0.051700
     51 H18          1.1460     2.2030    -2.2160 hc         1 7AV       0.058200
     52 H19          0.0360     0.8730    -1.9220 hc         1 7AV       0.058200
     53 H20          6.6290    -1.7840    -2.2120 hn         1 7AV       0.452800
     54 H21         -1.3190    -1.8230    -2.8840 ha         1 7AV       0.149500
     55 H22         -2.3970     0.3240    -2.3550 ha         1 7AV       0.136000
@<TRIPOS>BOND
     1     1     2 ar  
     2     1    20 ar  
     3     1    34 1   
     4     2     3 ar  
     5     2    10 1   
     6     3    19 ar  
     7     3    35 1   
     8     4     5 ar  
     9     4     9 ar  
    10     4    25 1   
    11     5     6 ar  
    12     5    36 1   
    13     6     7 ar  
    14     6    37 1   
    15     7     8 ar  
    16     7    38 1   
    17     8     9 ar  
    18     8    39 1   
    19     9    30 1   
    20    10    11 2   
    21    10    28 1   
    22    11    27 1   
    23    11    40 1   
    24    12    27 1   
    25    12    28 2   
    26    12    29 1   
    27    13    29 1   
    28    13    41 1   
    29    13    42 1   
    30    13    43 1   
    31    14    15 1   
    32    14    30 1   
    33    14    44 1   
    34    14    45 1   
    35    15    16 ar  
    36    15    32 ar  
    37    16    17 ar  
    38    16    46 1   
    39    17    18 ar  
    40    17    47 1   
    41    18    31 ar  
    42    18    33 1   
    43    19    21 ar  
    44    19    48 1   
    45    20    21 ar  
    46    20    24 1   
    47    21    22 1   
    48    22    23 1   
    49    22    25 1   
    50    23    24 1   
    51    23    49 1   
    52    23    50 1   
    53    24    51 1   
    54    24    52 1   
    55    25    26 2   
    56    29    53 1   
    57    31    32 ar  
    58    31    54 1   
    59    32    55 1   
@<TRIPOS>SUBSTRUCTURE
     1 7AV         1 TEMP              0 ****  ****    0 ROOT
