@<TRIPOS>MOLECULE
7AV
   55    59     1     0     0
SMALL
No Charge or Current Charge


@<TRIPOS>ATOM
      1 C1           2.0690     0.5120    -0.4920 ca         1 7AV      -0.037000
      2 C2           2.4800    -0.1520     0.6880 ca         1 7AV      -0.148500
      3 C3           1.9600     0.2820     1.9370 ca         1 7AV      -0.074000
      4 C12         -2.6110     3.8440     1.2240 ca         1 7AV      -0.181600
      5 C13         -3.2000     5.0630     1.6180 ca         1 7AV      -0.037000
      6 C14         -4.5450     5.3300     1.3150 ca         1 7AV      -0.152000
      7 C15         -5.3200     4.3770     0.6340 ca         1 7AV      -0.058000
      8 C16         -4.7530     3.1450     0.2680 ca         1 7AV      -0.204000
      9 C17         -3.4030     2.8730     0.5700 ca         1 7AV       0.167100
     10 C18          3.4640    -1.2400     0.6060 cc         1 7AV       0.404500
     11 C19          3.4650    -2.2340     1.5580 cd         1 7AV      -0.287000
     12 C21          5.0560    -2.4390    -0.2390 cd         1 7AV       0.730300
     13 C24          7.0180    -3.7560    -1.0960 c3         1 7AV       0.221100
     14 C26         -3.4220     0.6420    -0.5290 c3         1 7AV       0.212900
     15 C27         -2.3250    -0.3860    -0.7880 ca         1 7AV      -0.097300
     16 C28         -1.6550    -0.9890     0.2970 ca         1 7AV      -0.075000
     17 C29         -0.5880    -1.8760     0.0700 ca         1 7AV      -0.106000
     18 C30         -0.1860    -2.1660    -1.2420 ca         1 7AV       0.133000
     19 C4           1.0150     1.3250     2.0010 ca         1 7AV      -0.123000
     20 C5           1.1280     1.5490    -0.4100 ca         1 7AV      -0.150300
     21 C6           0.6270     1.9480     0.8070 ca         1 7AV      -0.018000
     22 N7          -0.3860     2.9040     0.5820 n          1 7AV      -0.204400
     23 C8          -0.4540     3.3350    -0.8400 c5         1 7AV       0.106000
     24 C9           0.5130     2.3130    -1.5700 c5         1 7AV      -0.037100
     25 C10         -1.1640     3.5670     1.5580 c          1 7AV       0.640700
     26 O11         -0.7260     3.8150     2.6770 o          1 7AV      -0.577100
     27 S20          4.7000    -3.4210     1.1780 ss         1 7AV      -0.120400
     28 N22          4.3600    -1.3500    -0.4250 nc         1 7AV      -0.750000
     29 N23          5.9980    -2.7010    -1.1630 nu         1 7AV      -0.939100
     30 O25         -2.8280     1.6560     0.2900 os         1 7AV      -0.340100
     31 C31         -0.8530    -1.5770    -2.3290 ca         1 7AV      -0.106000
     32 C32         -1.9190    -0.6880    -2.1040 ca         1 7AV      -0.075000
     33 Cl3          1.1600    -3.2620    -1.5240 cl         1 7AV      -0.199000
     34 H1           2.4480     0.2040    -1.4640 ha         1 7AV       0.134000
     35 H2           2.2760    -0.1920     2.8630 ha         1 7AV       0.113000
     36 H3          -2.6090     5.8100     2.1460 ha         1 7AV       0.126000
     37 H4          -4.9890     6.2790     1.6100 ha         1 7AV       0.121000
     38 H5          -6.3630     4.5870     0.4040 ha         1 7AV       0.114000
     39 H6          -5.3750     2.4080    -0.2320 ha         1 7AV       0.119000
     40 H7           2.8220    -2.3510     2.4200 h4         1 7AV       0.159000
     41 H8           7.6840    -3.7030    -1.9680 h1         1 7AV       0.043367
     42 H9           7.6270    -3.6450    -0.1880 h1         1 7AV       0.043367
     43 H10          6.5460    -4.7470    -1.0800 h1         1 7AV       0.043367
     44 H11         -3.7690     1.0660    -1.4810 h1         1 7AV       0.044200
     45 H12         -4.2720     0.1710    -0.0190 h1         1 7AV       0.044200
     46 H13         -1.9460    -0.7520     1.3180 ha         1 7AV       0.118000
     47 H14         -0.0660    -2.3260     0.9100 ha         1 7AV       0.131500
     48 H15          0.5920     1.6200     2.9580 ha         1 7AV       0.148000
     49 H16         -1.4710     3.2840    -1.2490 h1         1 7AV       0.051700
     50 H17         -0.0940     4.3670    -0.9450 h1         1 7AV       0.051700
     51 H18          1.2640     2.8300    -2.1770 hc         1 7AV       0.058200
     52 H19         -0.0460     1.6470    -2.2370 hc         1 7AV       0.058200
     53 H20          6.0910    -1.9510    -1.8430 hn         1 7AV       0.508000
     54 H21         -0.5360    -1.8020    -3.3450 ha         1 7AV       0.131500
     55 H22         -2.4170    -0.2220    -2.9520 ha         1 7AV       0.118000
@<TRIPOS>BOND
     1     1     2 ar  
     2     1    20 ar  
     3     1    34 1   
     4     2     3 ar  
     5     2    10 1   
     6     3    19 ar  
     7     3    35 1   
     8     4     5 ar  
     9     4     9 ar  
    10     4    25 1   
    11     5     6 ar  
    12     5    36 1   
    13     6     7 ar  
    14     6    37 1   
    15     7     8 ar  
    16     7    38 1   
    17     8     9 ar  
    18     8    39 1   
    19     9    30 1   
    20    10    11 2   
    21    10    28 1   
    22    11    27 1   
    23    11    40 1   
    24    12    27 1   
    25    12    28 2   
    26    12    29 1   
    27    13    29 1   
    28    13    41 1   
    29    13    42 1   
    30    13    43 1   
    31    14    15 1   
    32    14    30 1   
    33    14    44 1   
    34    14    45 1   
    35    15    16 ar  
    36    15    32 ar  
    37    16    17 ar  
    38    16    46 1   
    39    17    18 ar  
    40    17    47 1   
    41    18    31 ar  
    42    18    33 1   
    43    19    21 ar  
    44    19    48 1   
    45    20    21 ar  
    46    20    24 1   
    47    21    22 1   
    48    22    23 1   
    49    22    25 1   
    50    23    24 1   
    51    23    49 1   
    52    23    50 1   
    53    24    51 1   
    54    24    52 1   
    55    25    26 2   
    56    29    53 1   
    57    31    32 ar  
    58    31    54 1   
    59    32    55 1   
@<TRIPOS>SUBSTRUCTURE
     1 7AV         1 TEMP              0 ****  ****    0 ROOT
