@<TRIPOS>MOLECULE
7AW
   93    95     1     0     0
SMALL
No Charge or Current Charge


@<TRIPOS>ATOM
      1 O38          6.0220    -0.8010    -2.1110 o          1 7AW      -0.545000
      2 C37          5.8940    -0.5050    -0.9340 c          1 7AW       0.641100
      3 O39          6.3260     0.6440    -0.3510 os         1 7AW      -0.467100
      4 C40          6.9900     1.5990    -1.1890 c3         1 7AW       0.262900
      5 C41          7.3580     2.7680    -0.3240 cc         1 7AW      -0.253300
      6 S45          6.4180     4.2330    -0.3280 ss         1 7AW      -0.008400
      7 C44          7.5310     4.8680     0.8550 cc         1 7AW       0.413300
      8 N43          8.5210     4.0620     1.2270 nd         1 7AW      -0.631000
      9 C42          8.4170     2.8530     0.5490 cd         1 7AW       0.289900
     10 N36          5.2860    -1.2750     0.0150 ns         1 7AW      -0.498900
     11 C04          4.6820    -2.5880    -0.2260 c3         1 7AW       0.123700
     12 C03          5.2450    -3.6370     0.7630 c3         1 7AW      -0.091400
     13 C02          6.7770    -3.8350     0.6690 c3         1 7AW      -0.074400
     14 C01          7.3020    -4.9260     1.6230 c3         1 7AW      -0.090100
     15 C05          3.1380    -2.5020    -0.1680 c3         1 7AW      -0.090400
     16 C06          2.5160    -1.5330    -1.2080 c3         1 7AW      -0.083400
     17 C07          0.9700    -1.5360    -1.2170 c3         1 7AW       0.104700
     18 C08          0.3780    -0.6260    -2.3250 c3         1 7AW      -0.051100
     19 C09         -1.1470    -0.5410    -2.2690 ca         1 7AW      -0.085300
     20 C14         -1.7770     0.5130    -1.5770 ca         1 7AW      -0.105500
     21 C13         -3.1770     0.5510    -1.4620 ca         1 7AW      -0.107000
     22 C12         -3.9580    -0.4580    -2.0490 ca         1 7AW      -0.117000
     23 C11         -3.3370    -1.5040    -2.7530 ca         1 7AW      -0.107000
     24 C10         -1.9360    -1.5470    -2.8600 ca         1 7AW      -0.105500
     25 N15          0.4360    -1.1500     0.0930 ns         1 7AW      -0.489900
     26 C16         -0.6700    -1.7280     0.6820 c          1 7AW       0.585100
     27 O17         -1.1590    -2.7750     0.2720 o          1 7AW      -0.609100
     28 C18         -1.2660    -0.9220     1.8690 c3         1 7AW       0.039700
     29 C33         -0.5220    -1.2030     3.2090 c3         1 7AW      -0.058700
     30 C35         -0.9420    -0.2200     4.3270 c3         1 7AW      -0.087600
     31 C34         -0.6490    -2.6720     3.6840 c3         1 7AW      -0.087600
     32 N19         -2.7180    -1.1940     1.9610 ns         1 7AW      -0.499900
     33 C20         -3.6960    -0.2420     2.1140 c          1 7AW       0.659100
     34 O21         -3.4300     0.9370     2.2870 o          1 7AW      -0.641100
     35 N22         -5.0200    -0.7200     2.0500 n          1 7AW      -0.425800
     36 C23         -5.3280    -2.1530     1.8360 c3         1 7AW       0.084300
     37 C24         -6.1690     0.2220     2.1210 c3         1 7AW       0.089700
     38 C25         -6.6810     0.6140     0.7520 cc         1 7AW       0.262300
     39 N32         -6.3270     1.8300     0.2190 nc         1 7AW      -0.629000
     40 C28         -6.8670     1.9740    -0.9830 cd         1 7AW       0.447700
     41 C29         -6.6320     3.2190    -1.8120 c3         1 7AW      -0.102000
     42 C31         -5.9420     2.8950    -3.1580 c3         1 7AW      -0.089600
     43 C30         -7.9370     4.0220    -2.0220 c3         1 7AW      -0.089600
     44 S27         -7.8720     0.6430    -1.5490 ss         1 7AW      -0.053400
     45 C26         -7.4990    -0.1610    -0.0360 cd         1 7AW      -0.263000
     46 H1           7.8980     1.1680    -1.6320 h1         1 7AW       0.064200
     47 H2           6.3330     1.9310    -2.0040 h1         1 7AW       0.064200
     48 H3           7.3810     5.8710     1.2350 h5         1 7AW       0.054100
     49 H4           9.1460     2.0730     0.7340 h4         1 7AW       0.044100
     50 H5           5.2610    -0.8860     0.9470 hn         1 7AW       0.324500
     51 H6           4.9550    -2.9170    -1.2380 h1         1 7AW       0.082700
     52 H7           4.9810    -3.3480     1.7880 hc         1 7AW       0.045700
     53 H8           4.7550    -4.6000     0.5720 hc         1 7AW       0.045700
     54 H9           7.0460    -4.1030    -0.3610 hc         1 7AW       0.045200
     55 H10          7.2890    -2.8930     0.8980 hc         1 7AW       0.045200
     56 H11          6.8410    -5.8950     1.3960 hc         1 7AW       0.032700
     57 H12          8.3890    -5.0310     1.5230 hc         1 7AW       0.032700
     58 H13          7.0770    -4.6700     2.6660 hc         1 7AW       0.032700
     59 H14          2.7230    -3.5040    -0.3320 hc         1 7AW       0.052200
     60 H15          2.8360    -2.1990     0.8430 hc         1 7AW       0.052200
     61 H16          2.8700    -0.5120    -1.0180 hc         1 7AW       0.051200
     62 H17          2.8760    -1.8100    -2.2070 hc         1 7AW       0.051200
     63 H18          0.6470    -2.5640    -1.4320 h1         1 7AW       0.084700
     64 H19          0.8090     0.3780    -2.2320 hc         1 7AW       0.052200
     65 H20          0.6970    -1.0020    -3.3050 hc         1 7AW       0.052200
     66 H21         -1.1810     1.2920    -1.1070 ha         1 7AW       0.107500
     67 H22         -3.6550     1.3580    -0.9100 ha         1 7AW       0.125000
     68 H23         -5.0400    -0.4330    -1.9560 ha         1 7AW       0.110000
     69 H24         -3.9410    -2.2880    -3.2050 ha         1 7AW       0.125000
     70 H25         -1.4630    -2.3710    -3.3890 ha         1 7AW       0.107500
     71 H26          0.7790    -0.2940     0.5100 hn         1 7AW       0.307500
     72 H27         -1.1280     0.1370     1.6130 h1         1 7AW       0.082700
     73 H28          0.5450    -1.0210     3.0240 hc         1 7AW       0.039700
     74 H29         -0.3230    -0.3640     5.2210 hc         1 7AW       0.039033
     75 H30         -0.8200     0.8190     3.9970 hc         1 7AW       0.039033
     76 H31         -1.9900    -0.3700     4.6120 hc         1 7AW       0.039033
     77 H32         -0.2710    -3.3670     2.9260 hc         1 7AW       0.039033
     78 H33         -0.0660    -2.8310     4.6000 hc         1 7AW       0.039033
     79 H34         -1.6930    -2.9290     3.9000 hc         1 7AW       0.039033
     80 H35         -3.0320    -2.1370     1.7800 hn         1 7AW       0.329500
     81 H36         -4.8620    -2.7580     2.6250 h1         1 7AW       0.040033
     82 H37         -6.4120    -2.3220     1.8620 h1         1 7AW       0.040033
     83 H38         -4.9470    -2.4720     0.8570 h1         1 7AW       0.040033
     84 H39         -6.9870    -0.2480     2.6810 h1         1 7AW       0.072200
     85 H40         -5.8840     1.1260     2.6750 h1         1 7AW       0.072200
     86 H41         -5.9460     3.8710    -1.2550 hc         1 7AW       0.080700
     87 H42         -6.5820     2.2690    -3.7900 hc         1 7AW       0.041367
     88 H43         -5.7150     3.8170    -3.7080 hc         1 7AW       0.041367
     89 H44         -4.9990     2.3620    -2.9910 hc         1 7AW       0.041367
     90 H45         -8.3940     4.2740    -1.0570 hc         1 7AW       0.041367
     91 H46         -7.7350     4.9580    -2.5560 hc         1 7AW       0.041367
     92 H47         -8.6650     3.4450    -2.6050 hc         1 7AW       0.041367
     93 H48         -7.8980    -1.1430     0.1840 h4         1 7AW       0.158000
@<TRIPOS>BOND
     1     1     2 2   
     2     2     3 1   
     3     2    10 1   
     4     3     4 1   
     5     4     5 1   
     6     4    46 1   
     7     4    47 1   
     8     5     6 1   
     9     5     9 2   
    10     6     7 1   
    11     7     8 2   
    12     7    48 1   
    13     8     9 1   
    14     9    49 1   
    15    10    11 1   
    16    10    50 1   
    17    11    12 1   
    18    11    15 1   
    19    11    51 1   
    20    12    13 1   
    21    12    52 1   
    22    12    53 1   
    23    13    14 1   
    24    13    54 1   
    25    13    55 1   
    26    14    56 1   
    27    14    57 1   
    28    14    58 1   
    29    15    16 1   
    30    15    59 1   
    31    15    60 1   
    32    16    17 1   
    33    16    61 1   
    34    16    62 1   
    35    17    18 1   
    36    17    25 1   
    37    17    63 1   
    38    18    19 1   
    39    18    64 1   
    40    18    65 1   
    41    19    20 ar  
    42    19    24 ar  
    43    20    21 ar  
    44    20    66 1   
    45    21    22 ar  
    46    21    67 1   
    47    22    23 ar  
    48    22    68 1   
    49    23    24 ar  
    50    23    69 1   
    51    24    70 1   
    52    25    26 1   
    53    25    71 1   
    54    26    27 2   
    55    26    28 1   
    56    28    29 1   
    57    28    32 1   
    58    28    72 1   
    59    29    30 1   
    60    29    31 1   
    61    29    73 1   
    62    30    74 1   
    63    30    75 1   
    64    30    76 1   
    65    31    77 1   
    66    31    78 1   
    67    31    79 1   
    68    32    33 1   
    69    32    80 1   
    70    33    34 2   
    71    33    35 1   
    72    35    36 1   
    73    35    37 1   
    74    36    81 1   
    75    36    82 1   
    76    36    83 1   
    77    37    38 1   
    78    37    84 1   
    79    37    85 1   
    80    38    39 1   
    81    38    45 2   
    82    39    40 2   
    83    40    41 1   
    84    40    44 1   
    85    41    42 1   
    86    41    43 1   
    87    41    86 1   
    88    42    87 1   
    89    42    88 1   
    90    42    89 1   
    91    43    90 1   
    92    43    91 1   
    93    43    92 1   
    94    44    45 1   
    95    45    93 1   
@<TRIPOS>SUBSTRUCTURE
     1 7AW         1 TEMP              0 ****  ****    0 ROOT
