@<TRIPOS>MOLECULE
7AW
   93    95     1     0     0
SMALL
bcc


@<TRIPOS>ATOM
      1 O38          6.1530    -0.8740    -1.9130 o          1 7AW      -0.594000
      2 C37          5.8700    -0.5110    -0.7890 c          1 7AW       0.757100
      3 O39          6.2750     0.6630    -0.2720 os         1 7AW      -0.443900
      4 C40          7.0670     1.4940    -1.1160 c3         1 7AW       0.239700
      5 C41          7.3020     2.7680    -0.3910 cc         1 7AW      -0.173700
      6 S45          6.0200     3.7920     0.1280 ss         1 7AW      -0.153300
      7 C44          7.1800     4.8950     0.7490 cc         1 7AW       0.413300
      8 N43          8.4130     4.5420     0.5850 nd         1 7AW      -0.631000
      9 C42          8.4890     3.3400    -0.0550 cd         1 7AW       0.355200
     10 N36          5.1350    -1.1900     0.1020 ns         1 7AW      -0.565900
     11 C04          4.5380    -2.4870    -0.1510 c3         1 7AW       0.123700
     12 C03          5.0680    -3.5300     0.8310 c3         1 7AW      -0.091400
     13 C02          6.5730    -3.7500     0.7560 c3         1 7AW      -0.074400
     14 C01          7.0440    -4.8520     1.6960 c3         1 7AW      -0.090100
     15 C05          3.0130    -2.4020    -0.1000 c3         1 7AW      -0.090400
     16 C06          2.4220    -1.4270    -1.1090 c3         1 7AW      -0.083400
     17 C07          0.8990    -1.4640    -1.1490 c3         1 7AW       0.104700
     18 C08          0.3390    -0.5530    -2.2590 c3         1 7AW      -0.051100
     19 C09         -1.1610    -0.5050    -2.2240 ca         1 7AW      -0.085300
     20 C14         -1.8160     0.4530    -1.4530 ca         1 7AW      -0.123500
     21 C13         -3.1940     0.4220    -1.2920 ca         1 7AW      -0.125000
     22 C12         -3.9430    -0.5660    -1.9180 ca         1 7AW      -0.135000
     23 C11         -3.3050    -1.5090    -2.7150 ca         1 7AW      -0.125000
     24 C10         -1.9250    -1.4790    -2.8610 ca         1 7AW      -0.123500
     25 N15          0.3450    -1.0840     0.1360 ns         1 7AW      -0.556900
     26 C16         -0.7620    -1.6360     0.6590 c          1 7AW       0.652100
     27 O17         -1.2800    -2.6580     0.2340 o          1 7AW      -0.609100
     28 C18         -1.3190    -0.9170     1.8870 c3         1 7AW       0.039700
     29 C33         -0.4960    -1.2750     3.1430 c3         1 7AW      -0.058700
     30 C35         -0.9720    -0.4730     4.3490 c3         1 7AW      -0.087600
     31 C34         -0.5160    -2.7690     3.4490 c3         1 7AW      -0.087600
     32 N19         -2.7130    -1.2620     2.0000 ns         1 7AW      -0.566900
     33 C20         -3.6870    -0.3210     2.1450 c          1 7AW       0.793100
     34 O21         -3.4400     0.8390     2.4620 o          1 7AW      -0.641100
     35 N22         -4.9610    -0.7770     1.9580 n          1 7AW      -0.492800
     36 C23         -5.2400    -2.1070     1.4620 c3         1 7AW       0.084300
     37 C24         -6.0860     0.1180     2.1430 c3         1 7AW       0.089700
     38 C25         -6.6460     0.6240     0.8470 cc         1 7AW       0.327600
     39 N32         -6.0070     1.6270     0.1670 nc         1 7AW      -0.629000
     40 C28         -6.6010     1.9210    -0.9430 cd         1 7AW       0.447700
     41 C29         -6.1670     3.0010    -1.8850 c3         1 7AW      -0.102000
     42 C31         -5.9600     2.4720    -3.3030 c3         1 7AW      -0.089600
     43 C30         -7.1570     4.1670    -1.8670 c3         1 7AW      -0.089600
     44 S27         -8.0200     0.9680    -1.2450 ss         1 7AW      -0.198300
     45 C26         -7.7620     0.1470     0.2380 cd         1 7AW      -0.201400
     46 H1           8.0300     1.0280    -1.3390 h1         1 7AW       0.064200
     47 H2           6.5550     1.6760    -2.0640 h1         1 7AW       0.064200
     48 H3           6.8690     5.8060     1.2420 h5         1 7AW       0.054100
     49 H4           9.4540     2.9010    -0.2670 h4         1 7AW       0.044100
     50 H5           4.9680    -0.7690     1.0040 hn         1 7AW       0.324500
     51 H6           4.8330    -2.7800    -1.1610 h1         1 7AW       0.082700
     52 H7           4.7860    -3.2430     1.8510 hc         1 7AW       0.045700
     53 H8           4.5530    -4.4740     0.6280 hc         1 7AW       0.045700
     54 H9           6.8530    -4.0010    -0.2710 hc         1 7AW       0.045200
     55 H10          7.0950    -2.8200     0.9970 hc         1 7AW       0.045200
     56 H11          6.5870    -5.8100     1.4430 hc         1 7AW       0.032700
     57 H12          8.1260    -4.9800     1.6500 hc         1 7AW       0.032700
     58 H13          6.7820    -4.6270     2.7320 hc         1 7AW       0.032700
     59 H14          2.6140    -3.4030    -0.2890 hc         1 7AW       0.052200
     60 H15          2.6970    -2.1310     0.9130 hc         1 7AW       0.052200
     61 H16          2.7550    -0.4070    -0.8920 hc         1 7AW       0.051200
     62 H17          2.7940    -1.6660    -2.1100 hc         1 7AW       0.051200
     63 H18          0.5770    -2.4870    -1.3460 h1         1 7AW       0.084700
     64 H19          0.7500     0.4530    -2.1310 hc         1 7AW       0.052200
     65 H20          0.6970    -0.9240    -3.2220 hc         1 7AW       0.052200
     66 H21         -1.2410     1.2280    -0.9600 ha         1 7AW       0.125500
     67 H22         -3.6890     1.1600    -0.6750 ha         1 7AW       0.143000
     68 H23         -5.0180    -0.5940    -1.7890 ha         1 7AW       0.128000
     69 H24         -3.8840    -2.2760    -3.2140 ha         1 7AW       0.143000
     70 H25         -1.4340    -2.2330    -3.4660 ha         1 7AW       0.125500
     71 H26          0.6410    -0.1940     0.5090 hn         1 7AW       0.307500
     72 H27         -1.2390     0.1620     1.7300 h1         1 7AW       0.082700
     73 H28          0.5380    -0.9820     2.9320 hc         1 7AW       0.039700
     74 H29         -0.3330    -0.6750     5.2100 hc         1 7AW       0.039033
     75 H30         -0.9470     0.6000     4.1570 hc         1 7AW       0.039033
     76 H31         -1.9930    -0.7420     4.6250 hc         1 7AW       0.039033
     77 H32         -0.0910    -3.3680     2.6430 hc         1 7AW       0.039033
     78 H33          0.0640    -2.9780     4.3480 hc         1 7AW       0.039033
     79 H34         -1.5350    -3.1180     3.6270 hc         1 7AW       0.039033
     80 H35         -2.9450    -2.1510     1.5850 hn         1 7AW       0.329500
     81 H36         -4.8990    -2.8830     2.1510 h1         1 7AW       0.040033
     82 H37         -6.3150    -2.2290     1.3540 h1         1 7AW       0.040033
     83 H38         -4.7960    -2.2880     0.4800 h1         1 7AW       0.040033
     84 H39         -6.8660    -0.4120     2.6920 h1         1 7AW       0.072200
     85 H40         -5.7710     0.9580     2.7590 h1         1 7AW       0.072200
     86 H41         -5.2070     3.3540    -1.5010 hc         1 7AW       0.080700
     87 H42         -6.8950     2.1140    -3.7390 hc         1 7AW       0.041367
     88 H43         -5.5840     3.2690    -3.9460 hc         1 7AW       0.041367
     89 H44         -5.2410     1.6540    -3.3240 hc         1 7AW       0.041367
     90 H45         -7.3110     4.5460    -0.8570 hc         1 7AW       0.041367
     91 H46         -6.7830     4.9870    -2.4810 hc         1 7AW       0.041367
     92 H47         -8.1270     3.8670    -2.2690 hc         1 7AW       0.041367
     93 H48         -8.4290    -0.6290     0.5800 h4         1 7AW       0.176000
@<TRIPOS>BOND
     1     1     2 2   
     2     2     3 1   
     3     2    10 1   
     4     3     4 1   
     5     4     5 1   
     6     4    46 1   
     7     4    47 1   
     8     5     6 1   
     9     5     9 2   
    10     6     7 1   
    11     7     8 2   
    12     7    48 1   
    13     8     9 1   
    14     9    49 1   
    15    10    11 1   
    16    10    50 1   
    17    11    12 1   
    18    11    15 1   
    19    11    51 1   
    20    12    13 1   
    21    12    52 1   
    22    12    53 1   
    23    13    14 1   
    24    13    54 1   
    25    13    55 1   
    26    14    56 1   
    27    14    57 1   
    28    14    58 1   
    29    15    16 1   
    30    15    59 1   
    31    15    60 1   
    32    16    17 1   
    33    16    61 1   
    34    16    62 1   
    35    17    18 1   
    36    17    25 1   
    37    17    63 1   
    38    18    19 1   
    39    18    64 1   
    40    18    65 1   
    41    19    20 ar  
    42    19    24 ar  
    43    20    21 ar  
    44    20    66 1   
    45    21    22 ar  
    46    21    67 1   
    47    22    23 ar  
    48    22    68 1   
    49    23    24 ar  
    50    23    69 1   
    51    24    70 1   
    52    25    26 1   
    53    25    71 1   
    54    26    27 2   
    55    26    28 1   
    56    28    29 1   
    57    28    32 1   
    58    28    72 1   
    59    29    30 1   
    60    29    31 1   
    61    29    73 1   
    62    30    74 1   
    63    30    75 1   
    64    30    76 1   
    65    31    77 1   
    66    31    78 1   
    67    31    79 1   
    68    32    33 1   
    69    32    80 1   
    70    33    34 2   
    71    33    35 1   
    72    35    36 1   
    73    35    37 1   
    74    36    81 1   
    75    36    82 1   
    76    36    83 1   
    77    37    38 1   
    78    37    84 1   
    79    37    85 1   
    80    38    39 1   
    81    38    45 2   
    82    39    40 2   
    83    40    41 1   
    84    40    44 1   
    85    41    42 1   
    86    41    43 1   
    87    41    86 1   
    88    42    87 1   
    89    42    88 1   
    90    42    89 1   
    91    43    90 1   
    92    43    91 1   
    93    43    92 1   
    94    44    45 1   
    95    45    93 1   
@<TRIPOS>SUBSTRUCTURE
     1 7AW         1 TEMP              0 ****  ****    0 ROOT
