@<TRIPOS>MOLECULE
7AX
   47    50     1     0     0
SMALL
abcg2


@<TRIPOS>ATOM
      1 CAH          1.2850     0.1100    -1.6270 ca         1 7AX      -0.070000
      2 CAI          2.2360     0.9050    -0.9540 ca         1 7AX      -0.054000
      3 CAJ          2.6520     0.5050     0.3420 ca         1 7AX      -0.015000
      4 CAK          2.1180    -0.6640     0.9190 ca         1 7AX      -0.150000
      5 CAL          1.2040    -1.4170     0.2290 ca         1 7AX       0.147100
      6 CAM          0.7780    -1.0250    -1.0600 ca         1 7AX      -0.156000
      7 CAY          2.7710     2.0820    -1.5250 ca         1 7AX      -0.071000
      8 CAZ          3.6820     2.8390    -0.8490 ca         1 7AX      -0.089000
      9 CBA          4.0910     2.4370     0.4470 ca         1 7AX      -0.005000
     10 CBB          3.5920     1.2980     1.0320 ca         1 7AX      -0.073000
     11 CBC          5.0410     3.2330     1.1560 cg         1 7AX       0.323000
     12 NBD          5.8090     3.8800     1.7210 n1         1 7AX      -0.454000
     13 C0P         -1.0320     1.4070     1.2100 cc         1 7AX       0.015600
     14 C00         -2.4720    -3.8110    -0.2730 ca         1 7AX      -0.189000
     15 C0D         -3.0990    -1.2990     0.8590 c3         1 7AX       0.136600
     16 C0E         -3.0860     0.0880     1.4600 c3         1 7AX       0.110000
     17 C0K         -2.7270     1.5340    -0.4660 c          1 7AX       0.614000
     18 C0N         -0.6630     2.8930    -0.6470 c          1 7AX       0.591200
     19 C0O         -0.2420     2.3070     0.6010 cd         1 7AX      -0.377200
     20 N0H         -2.2490     1.0260     0.7220 n          1 7AX      -0.308000
     21 N0M         -1.8920     2.4220    -1.0890 ns         1 7AX      -0.468500
     22 O0A          0.7710    -2.5540     0.8350 os         1 7AX      -0.240200
     23 O0B         -1.7750    -1.7960     0.8900 os         1 7AX      -0.337100
     24 O0S         -0.0520     3.7200    -1.2960 o          1 7AX      -0.528000
     25 C01         -2.0800    -5.0000    -0.8790 ca         1 7AX      -0.069000
     26 C02         -0.7450    -5.3620    -0.9340 ca         1 7AX      -0.136000
     27 C03          0.2140    -4.5230    -0.3780 ca         1 7AX      -0.076000
     28 C04         -0.1700    -3.3430     0.2280 ca         1 7AX       0.058100
     29 C05         -1.5180    -2.9680     0.2860 ca         1 7AX       0.128100
     30 H1           0.9550     0.4040    -2.6160 ha         1 7AX       0.120000
     31 H2           2.4380    -0.9700     1.9080 ha         1 7AX       0.131000
     32 H3           0.0640    -1.6200    -1.6120 ha         1 7AX       0.128000
     33 H4           2.4470     2.3800    -2.5140 ha         1 7AX       0.126000
     34 H5           4.0900     3.7390    -1.2870 ha         1 7AX       0.130000
     35 H6           3.9130     1.0060     2.0240 ha         1 7AX       0.125000
     36 H7          -0.7460     0.9460     2.1430 h4         1 7AX       0.212000
     37 H8          -3.5230    -3.5610    -0.2380 ha         1 7AX       0.122000
     38 H9          -3.7700    -1.9290     1.4530 h1         1 7AX       0.058200
     39 H10         -3.4810    -1.2730    -0.1650 h1         1 7AX       0.058200
     40 H11         -4.1070     0.4630     1.5020 h1         1 7AX       0.075700
     41 H12         -2.7170     0.0520     2.4830 h1         1 7AX       0.075700
     42 H13          0.7040     2.5910     1.0320 ha         1 7AX       0.229000
     43 H14         -2.2390     2.8010    -1.9620 hn         1 7AX       0.340500
     44 H15         -2.8370    -5.6460    -1.3040 ha         1 7AX       0.119000
     45 H16         -0.4440    -6.2880    -1.4050 ha         1 7AX       0.123000
     46 H17          1.2640    -4.7840    -0.4070 ha         1 7AX       0.133000
     47 O0Q         -3.8070     1.2220    -0.9250 o          1 7AX      -0.567000
@<TRIPOS>BOND
     1     1     2 ar  
     2     1     6 ar  
     3     1    30 1   
     4     2     3 ar  
     5     2     7 ar  
     6     3     4 ar  
     7     3    10 ar  
     8     4     5 ar  
     9     4    31 1   
    10     5     6 ar  
    11     5    22 1   
    12     6    32 1   
    13     7     8 ar  
    14     7    33 1   
    15     8     9 ar  
    16     8    34 1   
    17     9    10 ar  
    18     9    11 1   
    19    10    35 1   
    20    11    12 3   
    21    13    19 2   
    22    13    20 1   
    23    13    36 1   
    24    14    25 ar  
    25    14    29 ar  
    26    14    37 1   
    27    15    16 1   
    28    15    23 1   
    29    15    38 1   
    30    15    39 1   
    31    16    20 1   
    32    16    40 1   
    33    16    41 1   
    34    17    20 1   
    35    17    21 1   
    36    17    47 2   
    37    18    19 1   
    38    18    21 1   
    39    18    24 2   
    40    19    42 1   
    41    21    43 1   
    42    22    28 1   
    43    23    29 1   
    44    25    26 ar  
    45    25    44 1   
    46    26    27 ar  
    47    26    45 1   
    48    27    28 ar  
    49    27    46 1   
    50    28    29 ar  
@<TRIPOS>SUBSTRUCTURE
     1 7AX         1 TEMP              0 ****  ****    0 ROOT
