@<TRIPOS>MOLECULE
7AX
   47    50     1     0     0
SMALL
No Charge or Current Charge


@<TRIPOS>ATOM
      1 CAH          1.3050     0.0270    -1.7120 ca         1 7AX      -0.070000
      2 CAI          2.2220     0.8570    -1.0400 ca         1 7AX      -0.054000
      3 CAJ          2.6610     0.5130     0.2560 ca         1 7AX      -0.015000
      4 CAK          2.1780    -0.6560     0.8720 ca         1 7AX      -0.150000
      5 CAL          1.2630    -1.4850     0.2040 ca         1 7AX       0.147100
      6 CAM          0.8300    -1.1430    -1.0960 ca         1 7AX      -0.156000
      7 CAY          2.6970     2.0310    -1.6530 ca         1 7AX      -0.071000
      8 CAZ          3.6050     2.8620    -0.9740 ca         1 7AX      -0.089000
      9 CBA          4.0460     2.5230     0.3190 ca         1 7AX      -0.005000
     10 CBB          3.5740     1.3450     0.9320 ca         1 7AX      -0.073000
     11 CBC          4.9730     3.3740     1.0130 cg         1 7AX       0.323000
     12 NBD          5.7280     4.0590     1.5830 n1         1 7AX      -0.454000
     13 C0P         -1.0110     1.2680     1.2850 cc         1 7AX       0.015600
     14 C00         -2.4390    -3.9480    -0.3000 ca         1 7AX      -0.189000
     15 C0D         -3.1650    -1.2840     0.6000 c3         1 7AX       0.136600
     16 C0E         -3.2230     0.1020     1.2740 c3         1 7AX       0.110000
     17 C0K         -2.7030     1.9160    -0.3540 c          1 7AX       0.614000
     18 C0N         -0.5880     3.1410    -0.2890 c          1 7AX       0.591200
     19 C0O         -0.1910     2.2670     0.8150 cd         1 7AX      -0.377200
     20 N0H         -2.2730     1.0990     0.7140 n          1 7AX      -0.308000
     21 N0M         -1.8250     2.8650    -0.7760 ns         1 7AX      -0.468500
     22 O0A          0.8330    -2.6290     0.8430 os         1 7AX      -0.240200
     23 O0B         -1.8410    -1.8250     0.7610 os         1 7AX      -0.337100
     24 O0S          0.1050     4.0360    -0.7380 o          1 7AX      -0.528000
     25 C01         -2.0400    -5.2060    -0.7850 ca         1 7AX      -0.069000
     26 C02         -0.6920    -5.5960    -0.7130 ca         1 7AX      -0.136000
     27 C03          0.2620    -4.7260    -0.1600 ca         1 7AX      -0.076000
     28 C04         -0.1290    -3.4640     0.3190 ca         1 7AX       0.058100
     29 C05         -1.4860    -3.0670     0.2620 ca         1 7AX       0.128100
     30 H1           0.9630     0.2850    -2.7120 ha         1 7AX       0.120000
     31 H2           2.5110    -0.9280     1.8700 ha         1 7AX       0.131000
     32 H3           0.1310    -1.7750    -1.6360 ha         1 7AX       0.128000
     33 H4           2.3600     2.3050    -2.6500 ha         1 7AX       0.126000
     34 H5           3.9630     3.7700    -1.4560 ha         1 7AX       0.130000
     35 H6           3.9110     1.0810     1.9320 ha         1 7AX       0.125000
     36 H7          -0.7870     0.5690     2.0870 h4         1 7AX       0.212000
     37 H8          -3.4890    -3.6790    -0.3650 ha         1 7AX       0.122000
     38 H9          -3.9110    -1.9360     1.0720 h1         1 7AX       0.058200
     39 H10         -3.4160    -1.1820    -0.4640 h1         1 7AX       0.058200
     40 H11         -4.2480     0.4880     1.1970 h1         1 7AX       0.075700
     41 H12         -3.0190    -0.0230     2.3450 h1         1 7AX       0.075700
     42 H13          0.7920     2.4570     1.2250 ha         1 7AX       0.229000
     43 H14         -2.1380     3.4450    -1.5370 hn         1 7AX       0.340500
     44 H15         -2.7770    -5.8820    -1.2150 ha         1 7AX       0.119000
     45 H16         -0.3870    -6.5710    -1.0880 ha         1 7AX       0.123000
     46 H17          1.3060    -5.0250    -0.1080 ha         1 7AX       0.133000
     47 O0Q         -3.7940     1.8000    -0.8890 o          1 7AX      -0.567000
@<TRIPOS>BOND
     1     1     2 ar  
     2     1     6 ar  
     3     1    30 1   
     4     2     3 ar  
     5     2     7 ar  
     6     3     4 ar  
     7     3    10 ar  
     8     4     5 ar  
     9     4    31 1   
    10     5     6 ar  
    11     5    22 1   
    12     6    32 1   
    13     7     8 ar  
    14     7    33 1   
    15     8     9 ar  
    16     8    34 1   
    17     9    10 ar  
    18     9    11 1   
    19    10    35 1   
    20    11    12 3   
    21    13    19 2   
    22    13    20 1   
    23    13    36 1   
    24    14    25 ar  
    25    14    29 ar  
    26    14    37 1   
    27    15    16 1   
    28    15    23 1   
    29    15    38 1   
    30    15    39 1   
    31    16    20 1   
    32    16    40 1   
    33    16    41 1   
    34    17    20 1   
    35    17    21 1   
    36    17    47 2   
    37    18    19 1   
    38    18    21 1   
    39    18    24 2   
    40    19    42 1   
    41    21    43 1   
    42    22    28 1   
    43    23    29 1   
    44    25    26 ar  
    45    25    44 1   
    46    26    27 ar  
    47    26    45 1   
    48    27    28 ar  
    49    27    46 1   
    50    28    29 ar  
@<TRIPOS>SUBSTRUCTURE
     1 7AX         1 TEMP              0 ****  ****    0 ROOT
