@<TRIPOS>MOLECULE
7AY
   50    53     1     0     0
SMALL
No Charge or Current Charge


@<TRIPOS>ATOM
      1 CAH          2.2260     1.0540    -0.8970 ca         1 7AY       0.138000
      2 CAI          2.6200    -0.2780    -0.6330 ca         1 7AY      -0.051000
      3 CAJ          2.1660    -0.9240     0.5470 ca         1 7AY      -0.012000
      4 CAK          1.3060    -0.2360     1.4490 ca         1 7AY      -0.093300
      5 CAL          0.9050     1.0880     1.1480 ca         1 7AY       0.149100
      6 CAM          1.3850     1.7280    -0.0070 ca         1 7AY      -0.143000
      7 CAY          3.4630    -0.9750    -1.5300 ca         1 7AY      -0.086000
      8 CAZ          3.8530    -2.2950    -1.2650 ca         1 7AY      -0.086000
      9 CBA          3.4110    -2.9400    -0.1000 ca         1 7AY      -0.001000
     10 CBB          2.5740    -2.2570     0.8000 ca         1 7AY      -0.067000
     11 CBC          3.8110    -4.2940     0.1720 cg         1 7AY       0.317000
     12 NBD          4.1300    -5.3940     0.4000 n1         1 7AY      -0.440000
     13 C0P         -1.1220    -1.5790    -0.7030 cc         1 7AY       0.018600
     14 C00         -2.4800     3.8400     0.2670 ca         1 7AY      -0.186000
     15 C0D         -2.5350     1.4610    -1.3790 c3         1 7AY       0.138600
     16 C0E         -2.1950     0.1600    -2.1370 c3         1 7AY       0.108000
     17 C0K         -3.5030    -1.7500    -1.2160 c          1 7AY       0.617000
     18 C0N         -2.4560    -3.4920     0.1450 c          1 7AY       0.590200
     19 C0O         -1.1990    -2.7560     0.0040 cd         1 7AY      -0.384200
     20 N0H         -2.2680    -1.0730    -1.3120 n          1 7AY      -0.304000
     21 N0M         -3.5010    -2.9010    -0.4900 ns         1 7AY      -0.466500
     22 O0A          0.0670     1.7570     2.0170 os         1 7AY      -0.235200
     23 O0B         -1.6490     1.6010    -0.2500 os         1 7AY      -0.343100
     24 O0S         -2.5720    -4.5330     0.7660 o          1 7AY      -0.525000
     25 C01         -2.4500     4.9820     1.0860 ca         1 7AY      -0.071000
     26 C02         -1.5860     5.0360     2.1900 ca         1 7AY      -0.132000
     27 C03         -0.7480     3.9480     2.4780 ca         1 7AY      -0.076000
     28 C04         -0.7580     2.8050     1.6580 ca         1 7AY       0.060100
     29 C05         -1.6360     2.7370     0.5440 ca         1 7AY       0.122100
     30 C31          0.8040    -0.9150     2.7320 c3         1 7AY      -0.040800
     31 Cl1          2.7560     1.9250    -2.3380 cl         1 7AY      -0.192000
     32 H1           1.1010     2.7530    -0.2260 ha         1 7AY       0.143000
     33 H2           3.8260    -0.5070    -2.4410 ha         1 7AY       0.131000
     34 H3           4.5020    -2.8160    -1.9680 ha         1 7AY       0.131000
     35 H4           2.2480    -2.7820     1.6940 ha         1 7AY       0.134000
     36 H5          -0.2350    -0.9720    -0.8590 h4         1 7AY       0.212000
     37 H6          -3.1670     3.8320    -0.5730 ha         1 7AY       0.122000
     38 H7          -2.4150     2.3030    -2.0730 h1         1 7AY       0.058200
     39 H8          -3.5810     1.4290    -1.0480 h1         1 7AY       0.058200
     40 H9          -2.8700     0.0660    -2.9980 h1         1 7AY       0.076200
     41 H10         -1.1810     0.2540    -2.5480 h1         1 7AY       0.076200
     42 H11         -0.3410    -3.2040     0.4900 ha         1 7AY       0.224000
     43 H12         -4.3850    -3.3770    -0.4210 hn         1 7AY       0.342500
     44 H13         -3.1020     5.8260     0.8660 ha         1 7AY       0.120000
     45 H14         -1.5700     5.9190     2.8260 ha         1 7AY       0.125000
     46 H15         -0.0850     3.9880     3.3390 ha         1 7AY       0.134000
     47 H16          1.6440    -1.2150     3.3700 hc         1 7AY       0.052367
     48 H17          0.1640    -0.2720     3.3450 hc         1 7AY       0.052367
     49 H18          0.2170    -1.8110     2.5020 hc         1 7AY       0.052367
     50 O0Q         -4.5300    -1.3490    -1.7390 o          1 7AY      -0.564000
@<TRIPOS>BOND
     1     1     2 ar  
     2     1     6 ar  
     3     1    31 1   
     4     2     3 ar  
     5     2     7 ar  
     6     3     4 ar  
     7     3    10 ar  
     8     4     5 ar  
     9     4    30 1   
    10     5     6 ar  
    11     5    22 1   
    12     6    32 1   
    13     7     8 ar  
    14     7    33 1   
    15     8     9 ar  
    16     8    34 1   
    17     9    10 ar  
    18     9    11 1   
    19    10    35 1   
    20    11    12 3   
    21    13    19 2   
    22    13    20 1   
    23    13    36 1   
    24    14    25 ar  
    25    14    29 ar  
    26    14    37 1   
    27    15    16 1   
    28    15    23 1   
    29    15    38 1   
    30    15    39 1   
    31    16    20 1   
    32    16    40 1   
    33    16    41 1   
    34    17    20 1   
    35    17    21 1   
    36    17    50 2   
    37    18    19 1   
    38    18    21 1   
    39    18    24 2   
    40    19    42 1   
    41    21    43 1   
    42    22    28 1   
    43    23    29 1   
    44    25    26 ar  
    45    25    44 1   
    46    26    27 ar  
    47    26    45 1   
    48    27    28 ar  
    49    27    46 1   
    50    28    29 ar  
    51    30    47 1   
    52    30    48 1   
    53    30    49 1   
@<TRIPOS>SUBSTRUCTURE
     1 7AY         1 TEMP              0 ****  ****    0 ROOT
