@<TRIPOS>MOLECULE
7AY
   50    53     1     0     0
SMALL
bcc


@<TRIPOS>ATOM
      1 CAH          2.1870     1.0160    -0.8620 ca         1 7AY       0.046400
      2 CAI          2.6450    -0.2980    -0.6140 ca         1 7AY      -0.051000
      3 CAJ          2.1240    -0.9710     0.5320 ca         1 7AY      -0.012000
      4 CAK          1.1520    -0.3570     1.3680 ca         1 7AY      -0.093300
      5 CAL          0.7620     0.9280     1.0610 ca         1 7AY       0.149100
      6 CAM          1.2800     1.6240    -0.0450 ca         1 7AY      -0.161000
      7 CAY          3.5890    -0.9470    -1.4440 ca         1 7AY      -0.104000
      8 CAZ          4.0260    -2.2070    -1.1690 ca         1 7AY      -0.104000
      9 CBA          3.5270    -2.8720    -0.0270 ca         1 7AY      -0.001000
     10 CBB          2.6070    -2.2740     0.7980 ca         1 7AY      -0.085000
     11 CBC          3.9880    -4.1880     0.2780 cg         1 7AY       0.227800
     12 NBD          4.3640    -5.2520     0.5120 n1         1 7AY      -0.350800
     13 C0P         -1.1640    -1.5190    -0.8600 cc         1 7AY       0.068600
     14 C00         -2.4580     3.8040     0.2720 ca         1 7AY      -0.204000
     15 C0D         -2.6660     1.4630    -1.3180 c3         1 7AY       0.115400
     16 C0E         -2.3120     0.2310    -2.1210 c3         1 7AY       0.108000
     17 C0K         -3.5410    -1.5830    -1.0470 c          1 7AY       0.826500
     18 C0N         -2.3250    -3.3170     0.2390 c          1 7AY       0.732700
     19 C0O         -1.1060    -2.6330    -0.1100 cd         1 7AY      -0.334200
     20 N0H         -2.3280    -0.9940    -1.3330 n          1 7AY      -0.371000
     21 N0M         -3.4620    -2.7130    -0.2790 ns         1 7AY      -0.600500
     22 O0A         -0.1290     1.5040     1.9040 os         1 7AY      -0.235200
     23 O0B         -1.7880     1.5200    -0.2090 os         1 7AY      -0.319900
     24 O0S         -2.4140    -4.3270     0.9130 o          1 7AY      -0.600500
     25 C01         -2.2820     4.9280     1.0710 ca         1 7AY      -0.089000
     26 C02         -1.3670     4.9210     2.1110 ca         1 7AY      -0.150000
     27 C03         -0.6230     3.7730     2.3570 ca         1 7AY      -0.094000
     28 C04         -0.7990     2.6520     1.5700 ca         1 7AY       0.060100
     29 C05         -1.7150     2.6530     0.5090 ca         1 7AY       0.122100
     30 C31          0.5460    -1.0410     2.5580 c3         1 7AY      -0.040800
     31 CL1          2.7870     1.9010    -2.2220 cl         1 7AY      -0.100400
     32 H1           0.9700     2.6410    -0.2480 ha         1 7AY       0.161000
     33 H2           3.9740    -0.4350    -2.3140 ha         1 7AY       0.149000
     34 H3           4.7480    -2.6940    -1.8090 ha         1 7AY       0.149000
     35 H4           2.2610    -2.8150     1.6660 ha         1 7AY       0.152000
     36 H5          -0.2680    -0.9880    -1.1460 h4         1 7AY       0.162000
     37 H6          -3.1880     3.8380    -0.5250 ha         1 7AY       0.140000
     38 H7          -2.5430     2.3320    -1.9720 h1         1 7AY       0.058200
     39 H8          -3.7050     1.4370    -0.9810 h1         1 7AY       0.058200
     40 H9          -3.0050     0.1430    -2.9550 h1         1 7AY       0.076200
     41 H10         -1.3140     0.3330    -2.5440 h1         1 7AY       0.076200
     42 H11         -0.1590    -3.0210     0.2290 ha         1 7AY       0.174000
     43 H12         -4.3490    -3.1570    -0.0720 hn         1 7AY       0.342500
     44 H13         -2.8730     5.8120     0.8720 ha         1 7AY       0.138000
     45 H14         -1.2280     5.7970     2.7290 ha         1 7AY       0.143000
     46 H15          0.0920     3.7400     3.1700 ha         1 7AY       0.152000
     47 H16          0.9810    -0.6740     3.4900 hc         1 7AY       0.052367
     48 H17         -0.5270    -0.8630     2.6050 hc         1 7AY       0.052367
     49 H18          0.6830    -2.1180     2.5390 hc         1 7AY       0.052367
     50 O0Q         -4.5960    -1.1360    -1.4470 o          1 7AY      -0.639500
@<TRIPOS>BOND
     1     1     2 ar  
     2     1     6 ar  
     3     1    31 1   
     4     2     3 ar  
     5     2     7 ar  
     6     3     4 ar  
     7     3    10 ar  
     8     4     5 ar  
     9     4    30 1   
    10     5     6 ar  
    11     5    22 1   
    12     6    32 1   
    13     7     8 ar  
    14     7    33 1   
    15     8     9 ar  
    16     8    34 1   
    17     9    10 ar  
    18     9    11 1   
    19    10    35 1   
    20    11    12 3   
    21    13    19 2   
    22    13    20 1   
    23    13    36 1   
    24    14    25 ar  
    25    14    29 ar  
    26    14    37 1   
    27    15    16 1   
    28    15    23 1   
    29    15    38 1   
    30    15    39 1   
    31    16    20 1   
    32    16    40 1   
    33    16    41 1   
    34    17    20 1   
    35    17    21 1   
    36    17    50 2   
    37    18    19 1   
    38    18    21 1   
    39    18    24 2   
    40    19    42 1   
    41    21    43 1   
    42    22    28 1   
    43    23    29 1   
    44    25    26 ar  
    45    25    44 1   
    46    26    27 ar  
    47    26    45 1   
    48    27    28 ar  
    49    27    46 1   
    50    28    29 ar  
    51    30    47 1   
    52    30    48 1   
    53    30    49 1   
@<TRIPOS>SUBSTRUCTURE
     1 7AY         1 TEMP              0 ****  ****    0 ROOT
