@<TRIPOS>MOLECULE
7AZ
  102   108     1     0     0
SMALL
bcc


@<TRIPOS>ATOM
      1 C39         -1.2910     3.9640     2.7020 c3         1 7AZ       0.074533
      2 C40         -0.0910     3.5900     1.8550 ca         1 7AZ      -0.169967
      3 C26          3.3790    -2.7820    -0.7010 ca         1 7AZ      -0.152000
      4 C27          4.4870    -1.7730     1.2220 ca         1 7AZ      -0.169967
      5 C28          5.6760    -1.0240     1.7850 c3         1 7AZ       0.074533
      6 C29          5.6780     0.4530     1.4660 ca         1 7AZ      -0.169967
      7 C30          5.7380     3.1510     0.8150 ca         1 7AZ      -0.040083
      8 C31          4.7380     1.3280     2.0160 ca         1 7AZ       0.087600
      9 C32          6.6430     0.9730     0.6050 ca         1 7AZ      -0.040083
     10 C33          6.7140     2.3200     0.2670 ca         1 7AZ      -0.152000
     11 C34          4.7550     2.6850     1.6780 ca         1 7AZ      -0.169967
     12 C35          3.7110     3.6080     2.2430 c3         1 7AZ       0.074533
     13 C1          -4.4650     4.6660     0.7210 ca         1 7AZ      -0.152000
     14 C2          -3.3130     2.5420     2.1830 ca         1 7AZ       0.087600
     15 C3          -5.1250     3.4510     0.8960 ca         1 7AZ      -0.040083
     16 C4          -3.2190     4.7830     1.3230 ca         1 7AZ      -0.040083
     17 C5          -2.6300     3.7520     2.0520 ca         1 7AZ      -0.169967
     18 C6          -4.5870     2.3900     1.6170 ca         1 7AZ      -0.169967
     19 C7          -5.4190     1.1520     1.8530 c3         1 7AZ       0.074533
     20 C8          -5.0380    -0.0920     1.0810 ca         1 7AZ      -0.169967
     21 C9          -4.6410    -2.4820    -0.2870 ca         1 7AZ      -0.040083
     22 C10         -5.4070    -0.2280    -0.2550 ca         1 7AZ      -0.040083
     23 C11         -4.4170    -1.1750     1.6940 ca         1 7AZ       0.087600
     24 C12         -4.2470    -2.3980     1.0430 ca         1 7AZ      -0.169967
     25 C13         -5.2060    -1.4040    -0.9710 ca         1 7AZ      -0.152000
     26 C14         -3.7810    -3.6330     1.7840 c3         1 7AZ       0.074533
     27 C15         -2.3730    -4.1230     1.5340 ca         1 7AZ      -0.169967
     28 C16          0.1510    -5.2390     1.2820 ca         1 7AZ      -0.040083
     29 C17         -2.1840    -5.3620     0.9300 ca         1 7AZ      -0.040083
     30 C18         -1.2500    -3.4240     1.9950 ca         1 7AZ       0.087600
     31 C19          0.0260    -3.9860     1.8750 ca         1 7AZ      -0.169967
     32 C20         -0.9310    -5.9510     0.7780 ca         1 7AZ      -0.152000
     33 C21          1.2360    -3.3080     2.4640 c3         1 7AZ       0.074533
     34 C22          2.3280    -2.8720     1.5050 ca         1 7AZ      -0.169967
     35 C23          4.4360    -2.0840    -0.1320 ca         1 7AZ      -0.040083
     36 C24          3.4250    -2.1760     2.0260 ca         1 7AZ       0.087600
     37 C25          2.3310    -3.1530     0.1420 ca         1 7AZ      -0.040083
     38 O72         -0.5840     1.5030    -2.0690 o          1 7AZ      -0.942556
     39 O52          1.9720     1.5820    -2.3880 o          1 7AZ      -0.942556
     40 O63          0.5600     3.6970    -2.7300 o          1 7AZ      -0.942556
     41 C44          0.8990     2.8010    -0.2320 ca         1 7AZ      -0.152000
     42 C43         -0.2080     3.1180     0.5530 ca         1 7AZ      -0.040083
     43 O62         -5.1850     5.5760    -1.7040 o          1 7AZ      -0.942556
     44 O61         -6.6720     6.1360     0.3050 o          1 7AZ      -0.942556
     45 O50         -4.3800     7.2740     0.0480 o          1 7AZ      -0.942556
     46 C41          2.1540     2.9410     0.3530 ca         1 7AZ      -0.040083
     47 C45          2.3300     3.4140     1.6510 ca         1 7AZ      -0.169967
     48 C42          1.1940     3.7500     2.3880 ca         1 7AZ       0.087600
     49 O48          1.3890     4.2440     3.6430 oh         1 7AZ      -0.548933
     50 O47          3.7830     0.9420     2.8920 oh         1 7AZ      -0.548933
     51 P53          8.1070     2.9980    -0.7500 p5         1 7AZ       1.180500
     52 O65          9.1650     3.3950     0.2880 o          1 7AZ      -0.942556
     53 O64          8.5450     1.8420    -1.6560 o          1 7AZ      -0.942556
     54 O54          7.5120     4.1950    -1.4990 o          1 7AZ      -0.942556
     55 O46          3.5090    -1.8500     3.3550 oh         1 7AZ      -0.548933
     56 P55          3.4530    -3.3400    -2.4670 p5         1 7AZ       1.180500
     57 O69          1.9960    -3.5350    -2.8960 o          1 7AZ      -0.942556
     58 O68          4.1940    -2.2270    -3.2130 o          1 7AZ      -0.942556
     59 O56          4.2540    -4.6480    -2.3910 o          1 7AZ      -0.942556
     60 P57         -0.7170    -7.5790    -0.0830 p5         1 7AZ       1.180500
     61 O67         -0.4790    -7.2130    -1.5510 o          1 7AZ      -0.942556
     62 O66          0.4980    -8.2240     0.5950 o          1 7AZ      -0.942556
     63 O58         -2.0350    -8.3250     0.1560 o          1 7AZ      -0.942556
     64 P59         -5.7280    -1.5760    -2.7470 p5         1 7AZ       1.180500
     65 O71         -4.4150    -1.7160    -3.5190 o          1 7AZ      -0.942556
     66 O70         -6.5880    -2.8440    -2.7600 o          1 7AZ      -0.942556
     67 O60         -6.5030    -0.2910    -3.0530 o          1 7AZ      -0.942556
     68 O37         -3.9140    -1.0220     2.9790 oh         1 7AZ      -0.548933
     69 O36         -2.7060     1.5660     2.8960 oh         1 7AZ      -0.548933
     70 H1          -1.2580     3.4170     3.6500 hc         1 7AZ      -0.028217
     71 H2          -1.2190     5.0260     2.9660 hc         1 7AZ      -0.028217
     72 H3           5.7670    -1.1860     2.8620 hc         1 7AZ      -0.028217
     73 H4           6.5820    -1.4550     1.3550 hc         1 7AZ      -0.028217
     74 H5           5.7350     4.2040     0.5540 ha         1 7AZ       0.137500
     75 H6           7.3680     0.2880     0.1760 ha         1 7AZ       0.137500
     76 H7           3.6670     3.4950     3.3280 hc         1 7AZ      -0.028217
     77 H8           4.0300     4.6410     2.0690 hc         1 7AZ      -0.028217
     78 H9          -2.2600    -1.9680     2.8040 ho         1 7AZ       0.388000
     79 H10         -6.1210     3.3240     0.4830 ha         1 7AZ       0.137500
     80 H11         -2.6840     5.7240     1.2420 ha         1 7AZ       0.137500
     81 H12         -5.4650     0.9350     2.9240 hc         1 7AZ      -0.028217
     82 H13         -6.4460     1.3950     1.5740 hc         1 7AZ      -0.028217
     83 H14         -4.5330    -3.4360    -0.7940 ha         1 7AZ       0.137500
     84 H15         -5.9000     0.6020    -0.7490 ha         1 7AZ       0.137500
     85 H16         -3.9350    -3.5050     2.8600 hc         1 7AZ      -0.028217
     86 H17         -4.4550    -4.4440     1.5020 hc         1 7AZ      -0.028217
     87 H18          1.1390    -5.6850     1.2280 ha         1 7AZ       0.137500
     88 H19         -3.0620    -5.9050     0.5940 ha         1 7AZ       0.137500
     89 H20          0.9040    -2.4450     3.0490 hc         1 7AZ      -0.028217
     90 H21          1.6810    -4.0000     3.1900 hc         1 7AZ      -0.028217
     91 H22          5.2590    -1.7610    -0.7620 ha         1 7AZ       0.137500
     92 H23          1.4910    -3.6840    -0.2870 ha         1 7AZ       0.137500
     93 H26         -1.1990     2.9860     0.1350 ha         1 7AZ       0.137500
     94 H29          3.0290     2.6550    -0.2190 ha         1 7AZ       0.137500
     95 H30          0.5470     4.4160     4.0760 ho         1 7AZ       0.388000
     96 H31          3.8460     0.0060     3.1340 ho         1 7AZ       0.388000
     97 H34          2.6960    -2.0690     3.8230 ho         1 7AZ       0.388000
     98 H41         -4.5510    -1.2940     3.6530 ho         1 7AZ       0.388000
     99 H42         -3.2560     0.7740     2.9960 ho         1 7AZ       0.388000
    100 O38         -1.3460    -2.2160     2.6000 oh         1 7AZ      -0.548933
    101 P51          0.6980     2.3440    -2.0160 p5         1 7AZ       1.180500
    102 P49         -5.2440     6.0430    -0.2460 p5         1 7AZ       1.180500
@<TRIPOS>BOND
     1     1     2 1   
     2     1    17 1   
     3     1    70 1   
     4     1    71 1   
     5     2    42 ar  
     6     2    48 ar  
     7     3    35 ar  
     8     3    37 ar  
     9     3    56 1   
    10     4     5 1   
    11     4    35 ar  
    12     4    36 ar  
    13     5     6 1   
    14     5    72 1   
    15     5    73 1   
    16     6     8 ar  
    17     6     9 ar  
    18     7    10 ar  
    19     7    11 ar  
    20     7    74 1   
    21     8    11 ar  
    22     8    50 1   
    23     9    10 ar  
    24     9    75 1   
    25    10    51 1   
    26    11    12 1   
    27    12    47 1   
    28    12    76 1   
    29    12    77 1   
    30    13    15 ar  
    31    13    16 ar  
    32    13   102 1   
    33    14    17 ar  
    34    14    18 ar  
    35    14    69 1   
    36    15    18 ar  
    37    15    79 1   
    38    16    17 ar  
    39    16    80 1   
    40    18    19 1   
    41    19    20 1   
    42    19    81 1   
    43    19    82 1   
    44    20    22 ar  
    45    20    23 ar  
    46    21    24 ar  
    47    21    25 ar  
    48    21    83 1   
    49    22    25 ar  
    50    22    84 1   
    51    23    24 ar  
    52    23    68 1   
    53    24    26 1   
    54    25    64 1   
    55    26    27 1   
    56    26    85 1   
    57    26    86 1   
    58    27    29 ar  
    59    27    30 ar  
    60    28    31 ar  
    61    28    32 ar  
    62    28    87 1   
    63    29    32 ar  
    64    29    88 1   
    65    30    31 ar  
    66    30   100 1   
    67    31    33 1   
    68    32    60 1   
    69    33    34 1   
    70    33    89 1   
    71    33    90 1   
    72    34    36 ar  
    73    34    37 ar  
    74    35    91 1   
    75    36    55 1   
    76    37    92 1   
    77    38   101 1   
    78    39   101 1   
    79    40   101 1   
    80    41    42 ar  
    81    41    46 ar  
    82    41   101 1   
    83    42    93 1   
    84    43   102 1   
    85    44   102 1   
    86    45   102 1   
    87    46    47 ar  
    88    46    94 1   
    89    47    48 ar  
    90    48    49 1   
    91    49    95 1   
    92    50    96 1   
    93    51    52 1   
    94    51    53 1   
    95    51    54 1   
    96    55    97 1   
    97    56    57 1   
    98    56    58 1   
    99    56    59 1   
   100    60    61 1   
   101    60    62 1   
   102    60    63 1   
   103    64    65 1   
   104    64    66 1   
   105    64    67 1   
   106    68    98 1   
   107    69    99 1   
   108    78   100 1   
@<TRIPOS>SUBSTRUCTURE
     1 7AZ         1 TEMP              0 ****  ****    0 ROOT
