@<TRIPOS>MOLECULE
7AZ
  102   108     1     0     0
SMALL
No Charge or Current Charge


@<TRIPOS>ATOM
      1 C39         -1.2410     3.5160     2.7670 c3         1 7AZ       0.074533
      2 C40          0.0040     3.5820     1.8580 ca         1 7AZ      -0.169967
      3 C26          3.1410    -2.8060    -0.6290 ca         1 7AZ      -0.152000
      4 C27          4.3920    -1.7970     1.2160 ca         1 7AZ      -0.169967
      5 C28          5.6610    -1.0820     1.6920 c3         1 7AZ       0.074533
      6 C29          5.6810     0.4070     1.3350 ca         1 7AZ      -0.169967
      7 C30          5.8190     3.1510     0.6990 ca         1 7AZ      -0.022083
      8 C31          4.7770     1.3200     1.9220 ca         1 7AZ       0.087600
      9 C32          6.6540     0.8850     0.4330 ca         1 7AZ      -0.022083
     10 C33          6.7320     2.2530     0.1170 ca         1 7AZ      -0.152000
     11 C34          4.8340     2.6970     1.6000 ca         1 7AZ      -0.169967
     12 C35          3.8760     3.7170     2.2340 c3         1 7AZ       0.074533
     13 C1          -4.3850     4.6110     0.8570 ca         1 7AZ      -0.152000
     14 C2          -3.4070     2.2660     2.0830 ca         1 7AZ       0.087600
     15 C3          -5.1590     3.4380     0.8660 ca         1 7AZ      -0.022083
     16 C4          -3.1160     4.6050     1.4610 ca         1 7AZ      -0.022083
     17 C5          -2.6070     3.4370     2.0680 ca         1 7AZ      -0.169967
     18 C6          -4.6840     2.2630     1.4820 ca         1 7AZ      -0.169967
     19 C7          -5.6140     1.0510     1.5780 c3         1 7AZ       0.074533
     20 C8          -5.0940    -0.2240     0.9000 ca         1 7AZ      -0.169967
     21 C9          -4.4140    -2.6280    -0.4120 ca         1 7AZ      -0.022083
     22 C10         -5.1820    -0.3230    -0.5030 ca         1 7AZ      -0.022083
     23 C11         -4.6470    -1.3420     1.6420 ca         1 7AZ       0.087600
     24 C12         -4.3170    -2.5550     0.9920 ca         1 7AZ      -0.169967
     25 C13         -4.8430    -1.5180    -1.1630 ca         1 7AZ      -0.152000
     26 C14         -3.9690    -3.8310     1.7680 c3         1 7AZ       0.074533
     27 C15         -2.5130    -4.2970     1.6640 ca         1 7AZ      -0.169967
     28 C16          0.1110    -5.3350     1.7190 ca         1 7AZ      -0.022083
     29 C17         -2.2580    -5.6300     1.2790 ca         1 7AZ      -0.022083
     30 C18         -1.4320    -3.4770     2.0600 ca         1 7AZ       0.087600
     31 C19         -0.1110    -3.9930     2.0940 ca         1 7AZ      -0.169967
     32 C20         -0.9540    -6.1530     1.3020 ca         1 7AZ      -0.152000
     33 C21          1.0770    -3.1810     2.6320 c3         1 7AZ       0.074533
     34 C22          2.1910    -2.8170     1.6330 ca         1 7AZ      -0.169967
     35 C23          4.2790    -2.1360    -0.1450 ca         1 7AZ      -0.022083
     36 C24          3.3480    -2.1500     2.1000 ca         1 7AZ       0.087600
     37 C25          2.0970    -3.1340     0.2570 ca         1 7AZ      -0.022083
     38 O72         -0.3840     3.3360    -2.6590 o          1 7AZ      -0.942556
     39 O52          2.0610     3.3270    -2.8570 o          1 7AZ      -0.942556
     40 O63          0.8730     5.4110    -2.4890 o          1 7AZ      -0.942556
     41 C44          1.0400     3.7670    -0.3580 ca         1 7AZ      -0.152000
     42 C43         -0.1070     3.6570     0.4500 ca         1 7AZ      -0.022083
     43 O62         -5.6210     5.8280    -1.2400 o          1 7AZ      -0.942556
     44 O61         -6.1990     6.6100     0.9780 o          1 7AZ      -0.942556
     45 O50         -4.0340     7.2060     0.0230 o          1 7AZ      -0.942556
     46 C41          2.3120     3.7750     0.2390 ca         1 7AZ      -0.022083
     47 C45          2.4580     3.6820     1.6380 ca         1 7AZ      -0.169967
     48 C42          1.2940     3.6030     2.4430 ca         1 7AZ       0.087600
     49 O48          1.3990     3.5670     3.8050 oh         1 7AZ      -0.587933
     50 O47          3.8590     0.8640     2.8200 oh         1 7AZ      -0.587933
     51 P53          8.0500     2.8580    -1.0130 p5         1 7AZ       1.180500
     52 O65          9.3060     2.9910    -0.2180 o          1 7AZ      -0.942556
     53 O64          8.2740     1.8640    -2.1020 o          1 7AZ      -0.942556
     54 O54          7.6810     4.1870    -1.5790 o          1 7AZ      -0.942556
     55 O46          3.4510    -1.8460     3.4260 oh         1 7AZ      -0.587933
     56 P55          3.0570    -3.2790    -2.4040 p5         1 7AZ       1.180500
     57 O69          1.6390    -3.4500    -2.8300 o          1 7AZ      -0.942556
     58 O68          3.7360    -2.2430    -3.2350 o          1 7AZ      -0.942556
     59 O56          3.7820    -4.5730    -2.5640 o          1 7AZ      -0.942556
     60 P57         -0.6840    -7.9170     0.8620 p5         1 7AZ       1.180500
     61 O67         -1.3350    -8.1960    -0.4500 o          1 7AZ      -0.942556
     62 O66          0.7730    -8.2310     0.8000 o          1 7AZ      -0.942556
     63 O58         -1.3390    -8.7600     1.9040 o          1 7AZ      -0.942556
     64 P59         -5.0570    -1.6600    -2.9830 p5         1 7AZ       1.180500
     65 O71         -4.1100    -2.6700    -3.5350 o          1 7AZ      -0.942556
     66 O70         -6.4550    -2.1120    -3.2410 o          1 7AZ      -0.942556
     67 O60         -4.8500    -0.3310    -3.6280 o          1 7AZ      -0.942556
     68 O37         -4.5600    -1.2570     3.0000 oh         1 7AZ      -0.587933
     69 O36         -2.9760     1.1370     2.7150 oh         1 7AZ      -0.587933
     70 H1          -1.1210     2.6860     3.4720 hc         1 7AZ      -0.028217
     71 H2          -1.2440     4.4100     3.4030 hc         1 7AZ      -0.028217
     72 H3           5.8090    -1.1960     2.7720 hc         1 7AZ      -0.028217
     73 H4           6.5310    -1.5820     1.2470 hc         1 7AZ      -0.028217
     74 H5           5.8850     4.2090     0.4570 ha         1 7AZ       0.119500
     75 H6           7.3680     0.1960    -0.0120 ha         1 7AZ       0.119500
     76 H7           3.8710     3.5690     3.3200 hc         1 7AZ      -0.028217
     77 H8           4.2780     4.7280     2.1000 hc         1 7AZ      -0.028217
     78 H9          -2.6270    -2.0080     2.2490 ho         1 7AZ       0.427000
     79 H10         -6.1510     3.4570     0.4190 ha         1 7AZ       0.119500
     80 H11         -2.5230     5.5170     1.4720 ha         1 7AZ       0.119500
     81 H12         -5.8490     0.8740     2.6340 hc         1 7AZ      -0.028217
     82 H13         -6.5850     1.2990     1.1320 hc         1 7AZ      -0.028217
     83 H14         -4.1880    -3.5630    -0.9190 ha         1 7AZ       0.119500
     84 H15         -5.5500     0.5220    -1.0800 ha         1 7AZ       0.119500
     85 H16         -4.2240    -3.7310     2.8290 hc         1 7AZ      -0.028217
     86 H17         -4.6340    -4.6280     1.4120 hc         1 7AZ      -0.028217
     87 H18          1.1160    -5.7470     1.7690 ha         1 7AZ       0.119500
     88 H19         -3.0810    -6.2810     0.9920 ha         1 7AZ       0.119500
     89 H20          0.7360    -2.2620     3.1200 hc         1 7AZ      -0.028217
     90 H21          1.5270    -3.7660     3.4450 hc         1 7AZ      -0.028217
     91 H22          5.0840    -1.8850    -0.8320 ha         1 7AZ       0.119500
     92 H23          1.2210    -3.6440    -0.1340 ha         1 7AZ       0.119500
     93 H26         -1.0810     3.6500    -0.0310 ha         1 7AZ       0.119500
     94 H29          3.1930     3.8660    -0.3920 ha         1 7AZ       0.119500
     95 H30          0.4930     3.4700     4.1620 ho         1 7AZ       0.427000
     96 H31          3.9080    -0.1240     2.8260 ho         1 7AZ       0.427000
     97 H34          2.6590    -2.2120     3.8730 ho         1 7AZ       0.427000
     98 H41         -4.5840    -2.1660     3.3670 ho         1 7AZ       0.427000
     99 H42         -3.6790     0.4500     2.6100 ho         1 7AZ       0.427000
    100 O38         -1.6830    -2.1950     2.4480 oh         1 7AZ      -0.587933
    101 P51          0.8870     3.9510    -2.1810 p5         1 7AZ       1.180500
    102 P49         -5.0770     6.1430     0.1120 p5         1 7AZ       1.180500
@<TRIPOS>BOND
     1     1     2 1   
     2     1    17 1   
     3     1    70 1   
     4     1    71 1   
     5     2    42 ar  
     6     2    48 ar  
     7     3    35 ar  
     8     3    37 ar  
     9     3    56 1   
    10     4     5 1   
    11     4    35 ar  
    12     4    36 ar  
    13     5     6 1   
    14     5    72 1   
    15     5    73 1   
    16     6     8 ar  
    17     6     9 ar  
    18     7    10 ar  
    19     7    11 ar  
    20     7    74 1   
    21     8    11 ar  
    22     8    50 1   
    23     9    10 ar  
    24     9    75 1   
    25    10    51 1   
    26    11    12 1   
    27    12    47 1   
    28    12    76 1   
    29    12    77 1   
    30    13    15 ar  
    31    13    16 ar  
    32    13   102 1   
    33    14    17 ar  
    34    14    18 ar  
    35    14    69 1   
    36    15    18 ar  
    37    15    79 1   
    38    16    17 ar  
    39    16    80 1   
    40    18    19 1   
    41    19    20 1   
    42    19    81 1   
    43    19    82 1   
    44    20    22 ar  
    45    20    23 ar  
    46    21    24 ar  
    47    21    25 ar  
    48    21    83 1   
    49    22    25 ar  
    50    22    84 1   
    51    23    24 ar  
    52    23    68 1   
    53    24    26 1   
    54    25    64 1   
    55    26    27 1   
    56    26    85 1   
    57    26    86 1   
    58    27    29 ar  
    59    27    30 ar  
    60    28    31 ar  
    61    28    32 ar  
    62    28    87 1   
    63    29    32 ar  
    64    29    88 1   
    65    30    31 ar  
    66    30   100 1   
    67    31    33 1   
    68    32    60 1   
    69    33    34 1   
    70    33    89 1   
    71    33    90 1   
    72    34    36 ar  
    73    34    37 ar  
    74    35    91 1   
    75    36    55 1   
    76    37    92 1   
    77    38   101 1   
    78    39   101 1   
    79    40   101 1   
    80    41    42 ar  
    81    41    46 ar  
    82    41   101 1   
    83    42    93 1   
    84    43   102 1   
    85    44   102 1   
    86    45   102 1   
    87    46    47 ar  
    88    46    94 1   
    89    47    48 ar  
    90    48    49 1   
    91    49    95 1   
    92    50    96 1   
    93    51    52 1   
    94    51    53 1   
    95    51    54 1   
    96    55    97 1   
    97    56    57 1   
    98    56    58 1   
    99    56    59 1   
   100    60    61 1   
   101    60    62 1   
   102    60    63 1   
   103    64    65 1   
   104    64    66 1   
   105    64    67 1   
   106    68    98 1   
   107    69    99 1   
   108    78   100 1   
@<TRIPOS>SUBSTRUCTURE
     1 7AZ         1 TEMP              0 ****  ****    0 ROOT
