@<TRIPOS>MOLECULE
7B0
   28    27     1     0     0
SMALL
abcg2


@<TRIPOS>ATOM
      1 C2           1.2370     2.2270     0.2430 c          1 7B0       0.711000
      2 O4           0.8610    -1.9450    -1.0430 o          1 7B0      -0.594500
      3 C8          -1.9850     0.0370    -0.1670 c3         1 7B0      -0.079400
      4 C11         -3.4540     0.2820     0.1530 c3         1 7B0      -0.075400
      5 C14         -4.3390    -0.8960    -0.2220 c3         1 7B0       0.144800
      6 N17         -5.7330    -0.6310     0.1060 n8         1 7B0      -0.999200
      7 C5          -1.0950     1.2100     0.2230 c3         1 7B0      -0.049400
      8 C4           0.3860     0.9660    -0.0550 c3         1 7B0       0.060500
      9 O3           0.9800     3.2250    -0.4510 o          1 7B0      -0.721000
     10 O1           2.0830     2.1350     1.1550 o          1 7B0      -0.721000
     11 N1           0.8620    -0.1670     0.7420 n7         1 7B0      -0.847300
     12 S1           1.6780    -1.3710     0.0100 s6         1 7B0       1.237200
     13 O2           2.1510    -2.2530     1.0670 o          1 7B0      -0.594500
     14 N2           2.9210    -0.5950    -0.7710 n8         1 7B0      -1.018100
     15 H1          -1.6440    -0.8660     0.3470 hc         1 7B0       0.041200
     16 H2          -1.8720    -0.1620    -1.2380 hc         1 7B0       0.041200
     17 H3          -3.5610     0.4880     1.2250 hc         1 7B0       0.038200
     18 H4          -3.8080     1.1760    -0.3680 hc         1 7B0       0.038200
     19 H5          -4.2680    -1.0660    -1.3000 h1         1 7B0       0.026200
     20 H6          -3.9420    -1.8040     0.2570 h1         1 7B0       0.026200
     21 H7          -6.3040    -1.4150    -0.1840 hn         1 7B0       0.381000
     22 H8          -5.8320    -0.5830     1.1130 hn         1 7B0       0.381000
     23 H10         -1.4030     2.1030    -0.3250 hc         1 7B0       0.046200
     24 H11         -1.2290     1.4370     1.2870 hc         1 7B0       0.046200
     25 H12          0.4970     0.7320    -1.1180 h1         1 7B0       0.059700
     26 H14          1.3710     0.1740     1.5570 hn         1 7B0       0.501000
     27 H15          3.5280    -0.1030    -0.1240 hn         1 7B0       0.460000
     28 H16          3.4630    -1.2300    -1.3480 hn         1 7B0       0.460000
@<TRIPOS>BOND
     1     1     8 1   
     2     1     9 1   
     3     1    10 1   
     4     2    12 2   
     5     3     4 1   
     6     3     7 1   
     7     3    15 1   
     8     3    16 1   
     9     4     5 1   
    10     4    17 1   
    11     4    18 1   
    12     5     6 1   
    13     5    19 1   
    14     5    20 1   
    15     6    21 1   
    16     6    22 1   
    17     7     8 1   
    18     7    23 1   
    19     7    24 1   
    20     8    11 1   
    21     8    25 1   
    22    11    12 1   
    23    11    26 1   
    24    12    13 2   
    25    12    14 1   
    26    14    27 1   
    27    14    28 1   
@<TRIPOS>SUBSTRUCTURE
     1 7B0         1 TEMP              0 ****  ****    0 ROOT
