@<TRIPOS>MOLECULE
7B0
   28    27     1     0     0
SMALL
No Charge or Current Charge


@<TRIPOS>ATOM
      1 C2           1.2070     2.2670     0.9200 c          1 7B0       0.711000
      2 O4           2.8420    -1.9980     0.6480 o          1 7B0      -0.594500
      3 C8          -1.9180     0.0920    -0.1830 c3         1 7B0      -0.079400
      4 C11         -3.4180     0.1830     0.1750 c3         1 7B0      -0.075400
      5 C14         -4.2870    -0.8050    -0.6310 c3         1 7B0       0.144800
      6 N17         -5.7130    -0.6940    -0.2700 n8         1 7B0      -0.999200
      7 C5          -1.0410     1.0810     0.6240 c3         1 7B0      -0.049400
      8 C4           0.4620     1.0510     0.2450 c3         1 7B0       0.060500
      9 O3           1.4140     3.2720     0.2520 o          1 7B0      -0.721000
     10 O1           1.5710     2.1460     2.0840 o          1 7B0      -0.721000
     11 N1           1.0380    -0.2910     0.6030 n7         1 7B0      -0.847300
     12 S1           2.4760    -0.7590    -0.0190 s6         1 7B0       1.237200
     13 O2           3.3750     0.3820    -0.1240 o          1 7B0      -0.594500
     14 N2           1.9880    -1.1870    -1.4810 n8         1 7B0      -1.018100
     15 H1          -1.5720    -0.9340    -0.0040 hc         1 7B0       0.041200
     16 H2          -1.7910     0.2910    -1.2540 hc         1 7B0       0.041200
     17 H3          -3.5440    -0.0140     1.2470 hc         1 7B0       0.038200
     18 H4          -3.7700     1.2060    -0.0080 hc         1 7B0       0.038200
     19 H5          -4.1800    -0.6020    -1.7050 h1         1 7B0       0.026200
     20 H6          -3.9540    -1.8340    -0.4360 h1         1 7B0       0.026200
     21 H7          -6.2420    -1.4140    -0.7770 hn         1 7B0       0.381000
     22 H8          -5.8280    -0.9590     0.7160 hn         1 7B0       0.381000
     23 H10         -1.4200     2.0960     0.4570 hc         1 7B0       0.046200
     24 H11         -1.1500     0.8780     1.6960 hc         1 7B0       0.046200
     25 H12          0.5250     1.2090    -0.8400 h1         1 7B0       0.059700
     26 H14          1.3020    -0.2500     1.5880 hn         1 7B0       0.501000
     27 H15          2.1880    -2.1810    -1.4440 hn         1 7B0       0.460000
     28 H16          0.9890    -1.1270    -1.3080 hn         1 7B0       0.460000
@<TRIPOS>BOND
     1     1     8 1   
     2     1     9 1   
     3     1    10 1   
     4     2    12 2   
     5     3     4 1   
     6     3     7 1   
     7     3    15 1   
     8     3    16 1   
     9     4     5 1   
    10     4    17 1   
    11     4    18 1   
    12     5     6 1   
    13     5    19 1   
    14     5    20 1   
    15     6    21 1   
    16     6    22 1   
    17     7     8 1   
    18     7    23 1   
    19     7    24 1   
    20     8    11 1   
    21     8    25 1   
    22    11    12 1   
    23    11    26 1   
    24    12    13 2   
    25    12    14 1   
    26    14    27 1   
    27    14    28 1   
@<TRIPOS>SUBSTRUCTURE
     1 7B0         1 TEMP              0 ****  ****    0 ROOT
