@<TRIPOS>MOLECULE
7B1
   33    35     1     0     0
SMALL
No Charge or Current Charge


@<TRIPOS>ATOM
      1 C20         -7.3830    -0.8420     0.0100 ca         1 7B1      -0.079000
      2 C19         -7.1490     0.5400    -0.0070 ca         1 7B1      -0.117500
      3 C21         -6.2980    -1.7320     0.0220 ca         1 7B1      -0.117500
      4 C18         -5.8330     1.0340    -0.0130 ca         1 7B1      -0.065500
      5 C22         -4.9790    -1.2440     0.0160 ca         1 7B1      -0.065500
      6 C9           1.9640     2.0070    -0.0210 ca         1 7B1      -0.097000
      7 C10          3.2850     1.5100    -0.0140 ca         1 7B1      -0.007000
      8 C16          2.4290    -0.7960     0.0150 ca         1 7B1       0.035000
      9 C17         -4.7250     0.1520    -0.0010 ca         1 7B1      -0.160600
     10 C6           1.1290    -0.2680     0.0070 ca         1 7B1       0.061400
     11 C7           0.9170     1.0790    -0.0110 ca         1 7B1       0.064100
     12 C11          3.5190     0.1090     0.0020 ca         1 7B1      -0.277500
     13 C2          -3.3200     0.7280    -0.0080 c          1 7B1       0.633700
     14 C4          -0.9490     0.0720     0.0010 cc         1 7B1       0.614200
     15 N14          5.5330    -0.6340     1.6050 n8         1 7B1      -1.002100
     16 N5          -0.0750    -0.9430     0.0150 nd         1 7B1      -0.630100
     17 N3          -2.2900    -0.1760     0.0040 ns         1 7B1      -0.413400
     18 O8          -0.4090     1.3520    -0.0150 os         1 7B1      -0.252700
     19 O1          -3.1280     1.9360    -0.0240 o          1 7B1      -0.528100
     20 O13          5.2320    -1.9120    -0.4420 o          1 7B1      -0.542000
     21 O15          6.1380     0.4820    -0.4690 o          1 7B1      -0.542000
     22 H1          -8.4020    -1.2240     0.0150 ha         1 7B1       0.120000
     23 H2          -7.9880     1.2330    -0.0160 ha         1 7B1       0.122500
     24 H3          -6.4790    -2.8040     0.0360 ha         1 7B1       0.122500
     25 H4          -5.6790     2.1120    -0.0270 ha         1 7B1       0.126500
     26 H5          -4.1710    -1.9720     0.0260 ha         1 7B1       0.126500
     27 H6           1.7640     3.0750    -0.0340 ha         1 7B1       0.145000
     28 H7           4.1180     2.2110    -0.0190 ha         1 7B1       0.143000
     29 H8           2.5810    -1.8730     0.0310 ha         1 7B1       0.156000
     30 H9           5.8750    -1.5910     1.6550 hn         1 7B1       0.473500
     31 H10          6.3980    -0.0980     1.6460 hn         1 7B1       0.473500
     32 H11         -2.5540    -1.1450     0.0170 hn         1 7B1       0.355500
     33 S12          5.1950    -0.5240     0.0140 sy         1 7B1       1.126600
@<TRIPOS>BOND
     1     1     2 ar  
     2     1     3 ar  
     3     1    22 1   
     4     2     4 ar  
     5     2    23 1   
     6     3     5 ar  
     7     3    24 1   
     8     4     9 ar  
     9     4    25 1   
    10     5     9 ar  
    11     5    26 1   
    12     6     7 ar  
    13     6    11 ar  
    14     6    27 1   
    15     7    12 ar  
    16     7    28 1   
    17     8    10 ar  
    18     8    12 ar  
    19     8    29 1   
    20     9    13 1   
    21    10    11 ar  
    22    10    16 1   
    23    11    18 1   
    24    12    33 1   
    25    13    17 1   
    26    13    19 2   
    27    14    16 2   
    28    14    17 1   
    29    14    18 1   
    30    15    30 1   
    31    15    31 1   
    32    15    33 1   
    33    17    32 1   
    34    20    33 2   
    35    21    33 2   
@<TRIPOS>SUBSTRUCTURE
     1 7B1         1 TEMP              0 ****  ****    0 ROOT
