@<TRIPOS>MOLECULE
7B1
   33    35     1     0     0
SMALL
bcc


@<TRIPOS>ATOM
      1 C20         -7.3010    -0.7130    -0.0340 ca         1 7B1      -0.097000
      2 C19         -6.9810     0.5480     0.4530 ca         1 7B1      -0.135500
      3 C21         -6.2990    -1.5500    -0.5040 ca         1 7B1      -0.135500
      4 C18         -5.6620     0.9710     0.4700 ca         1 7B1      -0.083500
      5 C22         -4.9760    -1.1340    -0.4790 ca         1 7B1      -0.083500
      6 C9           1.9030     1.8550    -0.3250 ca         1 7B1      -0.115000
      7 C10          3.2040     1.3820    -0.2460 ca         1 7B1      -0.025000
      8 C16          2.4490    -0.9160     0.1480 ca         1 7B1       0.017000
      9 C17         -4.6490     0.1280     0.0140 ca         1 7B1      -0.160600
     10 C6           1.1490    -0.4410     0.0770 ca         1 7B1       0.061400
     11 C7           0.9150     0.9100    -0.1570 ca         1 7B1       0.064100
     12 C11          3.4550     0.0260    -0.0140 ca         1 7B1      -0.277500
     13 C2          -3.2560     0.6490     0.0430 c          1 7B1       0.700700
     14 C4          -0.9280    -0.1430     0.0430 cc         1 7B1       0.614200
     15 N14          5.5360    -0.0180     1.6130 n8         1 7B1      -0.891700
     16 N5          -0.0650    -1.0860     0.2010 nd         1 7B1      -0.630100
     17 N3          -2.2760    -0.3230     0.0730 ns         1 7B1      -0.480400
     18 O8          -0.4320     1.0850    -0.1790 os         1 7B1      -0.252700
     19 O1          -3.0020     1.8310     0.0540 o          1 7B1      -0.528100
     20 O13          5.1660    -1.9500    -0.0770 o          1 7B1      -0.612800
     21 O15          5.9590     0.3060    -0.8100 o          1 7B1      -0.612800
     22 H1          -8.3320    -1.0410    -0.0520 ha         1 7B1       0.138000
     23 H2          -7.7600     1.2040     0.8190 ha         1 7B1       0.140500
     24 H3          -6.5450    -2.5270    -0.8980 ha         1 7B1       0.140500
     25 H4          -5.4170     1.9540     0.8480 ha         1 7B1       0.144500
     26 H5          -4.2190    -1.7980    -0.8760 ha         1 7B1       0.144500
     27 H6           1.6890     2.8980    -0.5070 ha         1 7B1       0.163000
     28 H7           4.0240     2.0760    -0.3680 ha         1 7B1       0.161000
     29 H8           2.6560    -1.9630     0.3220 ha         1 7B1       0.174000
     30 H9           5.1220    -0.6070     2.3290 hn         1 7B1       0.418300
     31 H10          6.5430     0.0300     1.7380 hn         1 7B1       0.418300
     32 H11         -2.5470    -1.2860     0.2120 hn         1 7B1       0.355500
     33 S12          5.1420    -0.5020     0.0830 sy         1 7B1       1.268200
@<TRIPOS>BOND
     1     1     2 ar  
     2     1     3 ar  
     3     1    22 1   
     4     2     4 ar  
     5     2    23 1   
     6     3     5 ar  
     7     3    24 1   
     8     4     9 ar  
     9     4    25 1   
    10     5     9 ar  
    11     5    26 1   
    12     6     7 ar  
    13     6    11 ar  
    14     6    27 1   
    15     7    12 ar  
    16     7    28 1   
    17     8    10 ar  
    18     8    12 ar  
    19     8    29 1   
    20     9    13 1   
    21    10    11 ar  
    22    10    16 1   
    23    11    18 1   
    24    12    33 1   
    25    13    17 1   
    26    13    19 2   
    27    14    16 2   
    28    14    17 1   
    29    14    18 1   
    30    15    30 1   
    31    15    31 1   
    32    15    33 1   
    33    17    32 1   
    34    20    33 2   
    35    21    33 2   
@<TRIPOS>SUBSTRUCTURE
     1 7B1         1 TEMP              0 ****  ****    0 ROOT
