@<TRIPOS>MOLECULE
7B2
   67    72     1     0     0
SMALL
No Charge or Current Charge


@<TRIPOS>ATOM
      1 N            1.6040    -1.0130     1.4840 nc         1 7B2      -0.385700
      2 C            7.0660    -1.3360    -1.4770 c3         1 7B2      -0.047800
      3 O            6.2480     1.4750    -0.9130 o          1 7B2      -0.538100
      4 Cl          -5.8360     1.2190    -0.8580 cl         1 7B2      -0.076000
      5 N2          -2.9590     0.7170     1.8090 na         1 7B2       0.147100
      6 C18         -4.5660     0.4650     0.0970 ca         1 7B2       0.501000
      7 C17         -4.1580    -0.8780    -0.0820 ca         1 7B2      -0.143000
      8 C15         -4.5850    -1.9320    -0.9870 cc         1 7B2      -0.010300
      9 C16         -5.6230    -1.8180    -2.0780 c3         1 7B2      -0.052900
     10 N3          -3.8640    -3.1110    -0.7150 na         1 7B2      -0.016800
     11 C14         -3.9940    -4.4110    -1.3980 c3         1 7B2       0.025900
     12 C12         -2.9880    -2.7920     0.3370 cc         1 7B2       0.032700
     13 C13         -1.9820    -3.7510     0.9200 c3         1 7B2      -0.062900
     14 C11         -3.1830    -1.4150     0.7250 ca         1 7B2      -0.209000
     15 C10         -2.5750    -0.6320     1.7220 ca         1 7B2       0.134700
     16 N4          -3.9860     1.2420     1.0480 nb         1 7B2      -0.514800
     17 C9          -2.0580     1.7330     2.3930 c3         1 7B2       0.150800
     18 C8          -1.1990     2.4380     1.3610 cc         1 7B2      -0.160300
     19 N5          -1.4890     3.6770     0.7390 na         1 7B2      -0.016800
     20 C19         -2.6680     4.5140     1.0290 c3         1 7B2       0.031900
     21 C20         -0.4860     4.0130    -0.2020 cc         1 7B2      -0.005300
     22 C21         -0.4700     5.2500    -1.0630 c3         1 7B2      -0.049900
     23 C22          0.3980     2.9740    -0.1410 cd         1 7B2      -0.181000
     24 C7          -0.0170     2.0590     0.7900 cd         1 7B2      -0.027000
     25 C23          1.5890     2.7660    -0.9220 cd         1 7B2       0.370900
     26 N6           2.3770     1.6770    -0.7860 nc         1 7B2      -0.435800
     27 N7           1.9400     0.8060     0.2320 na         1 7B2       0.103000
     28 C6           0.7840     0.9090     0.9770 cd         1 7B2      -0.097000
     29 N1           0.5680    -0.1400     1.7370 nc         1 7B2      -0.151000
     30 C5           2.4520    -0.4330     0.6320 cd         1 7B2       0.486400
     31 C4           3.6890    -1.0610     0.1520 cd         1 7B2      -0.158900
     32 C2           4.8640    -0.4420    -0.3800 cd         1 7B2      -0.235600
     33 C3           5.2460     1.0070    -0.3820 c          1 7B2       0.618500
     34 C24          3.8640    -2.4310     0.1600 cc         1 7B2      -0.112300
     35 C25          2.9160    -3.5390     0.5790 c3         1 7B2      -0.030800
     36 N8           5.1240    -2.6560    -0.4140 na         1 7B2       0.033000
     37 C26          5.7550    -3.9830    -0.5630 c3         1 7B2       0.044900
     38 C1           5.7100    -1.4440    -0.8100 cc         1 7B2      -0.061300
     39 H1           7.3680    -2.2700    -1.9610 hc         1 7B2       0.065033
     40 H2           7.0590    -0.5730    -2.2640 hc         1 7B2       0.065033
     41 H3           7.8390    -1.0660    -0.7480 hc         1 7B2       0.065033
     42 H4          -5.7030    -2.7320    -2.6770 hc         1 7B2       0.074367
     43 H5          -6.6130    -1.6160    -1.6520 hc         1 7B2       0.074367
     44 H6          -5.3750    -1.0030    -2.7670 hc         1 7B2       0.074367
     45 H7          -3.6140    -4.3240    -2.4230 h1         1 7B2       0.080033
     46 H8          -3.4260    -5.1840    -0.8690 h1         1 7B2       0.080033
     47 H9          -5.0500    -4.7070    -1.4260 h1         1 7B2       0.080033
     48 H10         -1.3730    -4.2080     0.1310 hc         1 7B2       0.081033
     49 H11         -1.2980    -3.2470     1.6100 hc         1 7B2       0.081033
     50 H12         -2.4840    -4.5550     1.4720 hc         1 7B2       0.081033
     51 H13         -1.8240    -1.0150     2.4110 h4         1 7B2       0.208000
     52 H14         -2.6660     2.4640     2.9380 h1         1 7B2       0.104200
     53 H15         -1.4090     1.2500     3.1340 h1         1 7B2       0.104200
     54 H16         -2.4340     5.2010     1.8510 h1         1 7B2       0.071367
     55 H17         -2.9440     5.0950     0.1410 h1         1 7B2       0.071367
     56 H18         -3.5210     3.8890     1.3110 h1         1 7B2       0.071367
     57 H19         -0.6800     6.1460    -0.4670 hc         1 7B2       0.067367
     58 H20          0.5060     5.3950    -1.5400 hc         1 7B2       0.067367
     59 H21         -1.2250     5.1820    -1.8550 hc         1 7B2       0.067367
     60 H22          1.9200     3.4640    -1.6800 h4         1 7B2       0.050100
     61 H23          4.5850     1.6760     0.2040 h4         1 7B2      -0.017800
     62 H24          2.8710    -3.6220     1.6710 hc         1 7B2       0.051367
     63 H25          1.9020    -3.3520     0.2070 hc         1 7B2       0.051367
     64 H26          3.2100    -4.5170     0.1830 hc         1 7B2       0.051367
     65 H27          5.4670    -4.4210    -1.5260 h1         1 7B2       0.059700
     66 H28          6.8460    -3.8930    -0.5140 h1         1 7B2       0.059700
     67 H29          5.4380    -4.6460     0.2510 h1         1 7B2       0.059700
@<TRIPOS>BOND
     1     1    29 1   
     2     1    30 2   
     3     2    38 1   
     4     2    39 1   
     5     2    40 1   
     6     2    41 1   
     7     3    33 2   
     8     4     6 1   
     9     5    15 2   
    10     5    16 1   
    11     5    17 1   
    12     6     7 ar  
    13     6    16 ar  
    14     7     8 2   
    15     7    14 ar  
    16     8     9 1   
    17     8    10 1   
    18     9    42 1   
    19     9    43 1   
    20     9    44 1   
    21    10    11 1   
    22    10    12 1   
    23    11    45 1   
    24    11    46 1   
    25    11    47 1   
    26    12    13 1   
    27    12    14 2   
    28    13    48 1   
    29    13    49 1   
    30    13    50 1   
    31    14    15 ar  
    32    15    51 1   
    33    17    18 1   
    34    17    52 1   
    35    17    53 1   
    36    18    19 1   
    37    18    24 2   
    38    19    20 1   
    39    19    21 1   
    40    20    54 1   
    41    20    55 1   
    42    20    56 1   
    43    21    22 1   
    44    21    23 2   
    45    22    57 1   
    46    22    58 1   
    47    22    59 1   
    48    23    24 1   
    49    23    25 1   
    50    24    28 1   
    51    25    26 2   
    52    25    60 1   
    53    26    27 1   
    54    27    28 1   
    55    27    30 1   
    56    28    29 2   
    57    30    31 1   
    58    31    32 1   
    59    31    34 2   
    60    32    33 1   
    61    32    38 2   
    62    33    61 1   
    63    34    35 1   
    64    34    36 1   
    65    35    62 1   
    66    35    63 1   
    67    35    64 1   
    68    36    37 1   
    69    36    38 1   
    70    37    65 1   
    71    37    66 1   
    72    37    67 1   
@<TRIPOS>SUBSTRUCTURE
     1 7B2         1 TEMP              0 ****  ****    0 ROOT
