@<TRIPOS>MOLECULE
7B2
   67    72     1     0     0
SMALL
abcg2


@<TRIPOS>ATOM
      1 N            1.6890    -1.0480     1.5190 nc         1 7B2      -0.385700
      2 C            7.3720    -1.1830    -0.7620 c3         1 7B2      -0.047800
      3 O            6.3820     1.5520     0.4550 o          1 7B2      -0.538100
      4 CL          -5.6700     1.1690    -1.2210 cl         1 7B2      -0.076000
      5 N2          -2.8940     0.7820     1.3620 na         1 7B2       0.147100
      6 C18         -4.5020     0.4480    -0.1970 ca         1 7B2       0.501000
      7 C17         -4.3120    -0.9520    -0.1720 ca         1 7B2      -0.143000
      8 C15         -4.8280    -2.0610    -0.8010 cc         1 7B2      -0.010300
      9 C16         -5.8860    -2.2380    -1.8230 c3         1 7B2      -0.052900
     10 N3          -4.1430    -3.1390    -0.2940 na         1 7B2      -0.016800
     11 C14         -4.4120    -4.5000    -0.7220 c3         1 7B2       0.025900
     12 C12         -3.2160    -2.7910     0.6240 cc         1 7B2       0.032700
     13 C13         -2.3200    -3.7440     1.3180 c3         1 7B2      -0.062900
     14 C11         -3.2940    -1.4120     0.7340 ca         1 7B2      -0.209000
     15 C10         -2.5960    -0.4910     1.4960 ca         1 7B2       0.134700
     16 N4          -3.8270     1.2720     0.5260 nb         1 7B2      -0.514800
     17 C9          -2.1290     1.8290     2.0570 c3         1 7B2       0.150800
     18 C8          -1.1720     2.4730     1.1240 cc         1 7B2      -0.160300
     19 N5          -1.3700     3.6690     0.4770 na         1 7B2      -0.016800
     20 C19         -2.5240     4.5210     0.6890 c3         1 7B2       0.031900
     21 C20         -0.3280     3.9620    -0.3390 cc         1 7B2      -0.005300
     22 C21         -0.2430     5.1990    -1.1550 c3         1 7B2      -0.049900
     23 C22          0.5750     2.9140    -0.2300 cd         1 7B2      -0.181000
     24 C7           0.0320     1.9850     0.6950 cd         1 7B2      -0.027000
     25 C23          1.8280     2.6380    -0.8470 cd         1 7B2       0.370900
     26 N6           2.5210     1.5760    -0.6110 nc         1 7B2      -0.435800
     27 N7           1.9840     0.7120     0.2830 na         1 7B2       0.103000
     28 C6           0.7920     0.8120     0.9440 cd         1 7B2      -0.097000
     29 N1           0.6090    -0.2500     1.6830 nc         1 7B2      -0.151000
     30 C5           2.5180    -0.4830     0.6790 cd         1 7B2       0.486400
     31 C4           3.7660    -1.0330     0.1920 cd         1 7B2      -0.158900
     32 C2           5.0410    -0.3800     0.1010 cd         1 7B2      -0.235600
     33 C3           5.3320     0.9500     0.5850 c          1 7B2       0.618500
     34 C24          3.9210    -2.3060    -0.2900 cc         1 7B2      -0.112300
     35 C25          2.9360    -3.4040    -0.4630 c3         1 7B2      -0.030800
     36 N8           5.2360    -2.4450    -0.6620 na         1 7B2       0.033000
     37 C26          5.7800    -3.6450    -1.2630 c3         1 7B2       0.044900
     38 C1           5.9250    -1.2980    -0.4470 cc         1 7B2      -0.061300
     39 H1           7.5690    -1.4050    -1.8120 hc         1 7B2       0.065033
     40 H2           7.7260    -0.1790    -0.5580 hc         1 7B2       0.065033
     41 H3           7.9670    -1.8780    -0.1650 hc         1 7B2       0.065033
     42 H4          -5.4970    -2.7260    -2.7190 hc         1 7B2       0.074367
     43 H5          -6.7060    -2.8510    -1.4440 hc         1 7B2       0.074367
     44 H6          -6.3010    -1.2820    -2.1230 hc         1 7B2       0.074367
     45 H7          -4.2400    -4.5930    -1.7920 h1         1 7B2       0.080033
     46 H8          -3.7540    -5.1880    -0.2040 h1         1 7B2       0.080033
     47 H9          -5.4430    -4.7630    -0.4990 h1         1 7B2       0.080033
     48 H10         -1.7120    -4.3110     0.6120 hc         1 7B2       0.081033
     49 H11         -1.6410    -3.2060     1.9760 hc         1 7B2       0.081033
     50 H12         -2.8780    -4.4550     1.9280 hc         1 7B2       0.081033
     51 H13         -1.7980    -0.7410     2.1820 h4         1 7B2       0.208000
     52 H14         -2.8430     2.5230     2.4980 h1         1 7B2       0.104200
     53 H15         -1.5940     1.3480     2.8730 h1         1 7B2       0.104200
     54 H16         -2.4710     5.0030     1.6630 h1         1 7B2       0.071367
     55 H17         -2.5590     5.2880    -0.0780 h1         1 7B2       0.071367
     56 H18         -3.4370     3.9340     0.6240 h1         1 7B2       0.071367
     57 H19         -0.2420     6.0970    -0.5340 hc         1 7B2       0.067367
     58 H20          0.6780     5.1990    -1.7340 hc         1 7B2       0.067367
     59 H21         -1.0730     5.2820    -1.8580 hc         1 7B2       0.067367
     60 H22          2.2670     3.3220    -1.5630 h4         1 7B2       0.050100
     61 H23          4.5020     1.4220     1.1380 h4         1 7B2      -0.017800
     62 H24          3.1930    -4.2760     0.1430 hc         1 7B2       0.051367
     63 H25          1.9480    -3.0720    -0.1550 hc         1 7B2       0.051367
     64 H26          2.8770    -3.7350    -1.5010 hc         1 7B2       0.051367
     65 H27          5.5890    -3.6650    -2.3350 h1         1 7B2       0.059700
     66 H28          6.8520    -3.6940    -1.0960 h1         1 7B2       0.059700
     67 H29          5.3290    -4.5240    -0.8100 h1         1 7B2       0.059700
@<TRIPOS>BOND
     1     1    29 1   
     2     1    30 2   
     3     2    38 1   
     4     2    39 1   
     5     2    40 1   
     6     2    41 1   
     7     3    33 2   
     8     4     6 1   
     9     5    15 2   
    10     5    16 1   
    11     5    17 1   
    12     6     7 ar  
    13     6    16 ar  
    14     7     8 2   
    15     7    14 ar  
    16     8     9 1   
    17     8    10 1   
    18     9    42 1   
    19     9    43 1   
    20     9    44 1   
    21    10    11 1   
    22    10    12 1   
    23    11    45 1   
    24    11    46 1   
    25    11    47 1   
    26    12    13 1   
    27    12    14 2   
    28    13    48 1   
    29    13    49 1   
    30    13    50 1   
    31    14    15 ar  
    32    15    51 1   
    33    17    18 1   
    34    17    52 1   
    35    17    53 1   
    36    18    19 1   
    37    18    24 2   
    38    19    20 1   
    39    19    21 1   
    40    20    54 1   
    41    20    55 1   
    42    20    56 1   
    43    21    22 1   
    44    21    23 2   
    45    22    57 1   
    46    22    58 1   
    47    22    59 1   
    48    23    24 1   
    49    23    25 1   
    50    24    28 1   
    51    25    26 2   
    52    25    60 1   
    53    26    27 1   
    54    27    28 1   
    55    27    30 1   
    56    28    29 2   
    57    30    31 1   
    58    31    32 1   
    59    31    34 2   
    60    32    33 1   
    61    32    38 2   
    62    33    61 1   
    63    34    35 1   
    64    34    36 1   
    65    35    62 1   
    66    35    63 1   
    67    35    64 1   
    68    36    37 1   
    69    36    38 1   
    70    37    65 1   
    71    37    66 1   
    72    37    67 1   
@<TRIPOS>SUBSTRUCTURE
     1 7B2         1 TEMP              0 ****  ****    0 ROOT
