@<TRIPOS>MOLECULE
7B3
   27    28     1     0     0
SMALL
abcg2


@<TRIPOS>ATOM
      1 C4          -1.8970    -0.7110     0.0140 cc         1 7B3      -0.092300
      2 C5          -3.1180    -1.5550     0.0120 c3         1 7B3      -0.026900
      3 C6          -3.1390     1.4390    -0.0220 c3         1 7B3       0.040900
      4 N1           1.4320    -2.3580     0.0050 nb         1 7B3      -0.307000
      5 C7          -0.6690     1.1960    -0.0060 cc         1 7B3      -0.059300
      6 C8          -0.4430     2.6650    -0.0300 c3         1 7B3      -0.032900
      7 N2          -1.9230     0.6530     0.0110 na         1 7B3      -0.030800
      8 C9           0.2070     0.1280    -0.0030 ca         1 7B3      -0.143000
      9 C1           1.6180    -0.0500    -0.0030 ca         1 7B3       0.592300
     10 O            2.3740     1.0450    -0.0050 os         1 7B3      -0.467300
     11 C            3.7870     0.8840    -0.0000 c3         1 7B3       0.158900
     12 C3          -0.5640    -1.0700     0.0080 ca         1 7B3      -0.128000
     13 C2           0.1380    -2.2990     0.0110 ca         1 7B3       0.310900
     14 N            2.1770    -1.2190     0.0010 nb         1 7B3      -0.463000
     15 H1          -3.7430    -1.3790    -0.8650 hc         1 7B3       0.049367
     16 H2          -2.8380    -2.6060     0.0060 hc         1 7B3       0.049367
     17 H3          -3.7390    -1.3890     0.8950 hc         1 7B3       0.049367
     18 H4          -3.4120     1.6880    -1.0470 h1         1 7B3       0.057367
     19 H5          -3.9520     0.8810     0.4320 h1         1 7B3       0.057367
     20 H6          -3.0040     2.3590     0.5410 h1         1 7B3       0.057367
     21 H7          -0.8110     3.1510     0.8770 hc         1 7B3       0.054367
     22 H8           0.6190     2.8780    -0.1100 hc         1 7B3       0.054367
     23 H9          -0.9410     3.1400    -0.8780 hc         1 7B3       0.054367
     24 H10          4.1280     0.3530     0.8890 h1         1 7B3       0.047700
     25 H11          4.1350     0.3470    -0.8830 h1         1 7B3       0.047700
     26 H12          4.1990     1.8900    -0.0020 h1         1 7B3       0.047700
     27 H13         -0.3820    -3.2520     0.0150 h4         1 7B3       0.020100
@<TRIPOS>BOND
     1     1     2 1   
     2     1     7 1   
     3     1    12 2   
     4     2    15 1   
     5     2    16 1   
     6     2    17 1   
     7     3     7 1   
     8     3    18 1   
     9     3    19 1   
    10     3    20 1   
    11     4    13 ar  
    12     4    14 ar  
    13     5     6 1   
    14     5     7 1   
    15     5     8 2   
    16     6    21 1   
    17     6    22 1   
    18     6    23 1   
    19     8     9 ar  
    20     8    12 ar  
    21     9    10 1   
    22     9    14 ar  
    23    10    11 1   
    24    11    24 1   
    25    11    25 1   
    26    11    26 1   
    27    12    13 ar  
    28    13    27 1   
@<TRIPOS>SUBSTRUCTURE
     1 7B3         1 TEMP              0 ****  ****    0 ROOT
