@<TRIPOS>MOLECULE
7B3
   27    28     1     0     0
SMALL
No Charge or Current Charge


@<TRIPOS>ATOM
      1 C4          -1.9430    -0.7080    -0.0050 cc         1 7B3      -0.092300
      2 C5          -3.1370    -1.6290    -0.0030 c3         1 7B3      -0.026900
      3 C6          -3.2600     1.5100    -0.0710 c3         1 7B3       0.040900
      4 N1           1.4340    -2.4310     0.0980 nb         1 7B3      -0.307000
      5 C7          -0.7040     1.1640    -0.0400 cc         1 7B3      -0.059300
      6 C8          -0.3190     2.6230    -0.0850 c3         1 7B3      -0.032900
      7 N2          -2.0320     0.6960    -0.0400 na         1 7B3      -0.030800
      8 C9           0.2080     0.0380     0.0060 ca         1 7B3      -0.143000
      9 C1           1.6160    -0.0560     0.0350 ca         1 7B3       0.592300
     10 O            2.3850     1.0900     0.0200 os         1 7B3      -0.467300
     11 C            3.8220     1.0150     0.0480 c3         1 7B3       0.158900
     12 C3          -0.5540    -1.1040     0.0260 ca         1 7B3      -0.128000
     13 C2           0.0720    -2.3630     0.0730 ca         1 7B3       0.310900
     14 N            2.1930    -1.2970     0.0790 nb         1 7B3      -0.463000
     15 H1          -3.7780    -1.4400    -0.8720 hc         1 7B3       0.049367
     16 H2          -2.8320    -2.6810    -0.0370 hc         1 7B3       0.049367
     17 H3          -3.7390    -1.4850     0.9020 hc         1 7B3       0.049367
     18 H4          -3.3390     2.0130    -1.0430 h1         1 7B3       0.057367
     19 H5          -4.1440     0.8790     0.0800 h1         1 7B3       0.057367
     20 H6          -3.2210     2.2620     0.7250 h1         1 7B3       0.057367
     21 H7           0.1570     2.9250     0.8550 hc         1 7B3       0.054367
     22 H8           0.3920     2.8100    -0.8980 hc         1 7B3       0.054367
     23 H9          -1.1820     3.2770    -0.2480 hc         1 7B3       0.054367
     24 H10          4.1710     0.5110     0.9590 h1         1 7B3       0.047700
     25 H11          4.2040     0.4660    -0.8220 h1         1 7B3       0.047700
     26 H12          4.2570     2.0230     0.0300 h1         1 7B3       0.047700
     27 H13         -0.4860    -3.2980     0.0910 h4         1 7B3       0.020100
@<TRIPOS>BOND
     1     1     2 1   
     2     1     7 1   
     3     1    12 2   
     4     2    15 1   
     5     2    16 1   
     6     2    17 1   
     7     3     7 1   
     8     3    18 1   
     9     3    19 1   
    10     3    20 1   
    11     4    13 ar  
    12     4    14 ar  
    13     5     6 1   
    14     5     7 1   
    15     5     8 2   
    16     6    21 1   
    17     6    22 1   
    18     6    23 1   
    19     8     9 ar  
    20     8    12 ar  
    21     9    10 1   
    22     9    14 ar  
    23    10    11 1   
    24    11    24 1   
    25    11    25 1   
    26    11    26 1   
    27    12    13 ar  
    28    13    27 1   
@<TRIPOS>SUBSTRUCTURE
     1 7B3         1 TEMP              0 ****  ****    0 ROOT
