@<TRIPOS>MOLECULE
7B4
   23    24     1     0     0
SMALL
No Charge or Current Charge


@<TRIPOS>ATOM
      1 C4          -1.6100    -0.2290    -0.1880 ca         1 7B4       0.457000
      2 C5          -0.2200     0.0050    -0.1010 ca         1 7B4      -0.134000
      3 C6           0.5890     1.2060     0.0040 cc         1 7B4      -0.065300
      4 N1          -2.0730    -1.5090    -0.2780 nb         1 7B4      -0.345000
      5 N2           1.9510     0.8530     0.0590 na         1 7B4      -0.022800
      6 Cl          -2.8120     1.0590    -0.1860 cl         1 7B4      -0.176000
      7 N           -1.2140    -2.5680    -0.2860 nb         1 7B4      -0.327000
      8 C3           0.1340    -2.3750    -0.2040 ca         1 7B4       0.340900
      9 C2           0.6400    -1.0650    -0.1090 ca         1 7B4      -0.145000
     10 C1           1.9870    -0.5510    -0.0110 cc         1 7B4      -0.083300
     11 C            3.2570    -1.3640     0.0160 c3         1 7B4      -0.029900
     12 H3           0.7760    -3.2550    -0.2140 h4         1 7B4       0.023100
     13 H4           3.8130    -1.1910     0.9450 hc         1 7B4       0.052033
     14 H5           3.0470    -2.4380    -0.0500 hc         1 7B4       0.052033
     15 H6           3.9080    -1.1000    -0.8260 hc         1 7B4       0.052033
     16 C7           3.1010     1.7690     0.1680 c3         1 7B4       0.037900
     17 C8           0.0870     2.6300     0.0500 c3         1 7B4      -0.034900
     18 H1           3.0150     2.3550     1.0910 h1         1 7B4       0.060033
     19 H2           4.0420     1.2060     0.1900 h1         1 7B4       0.060033
     20 H7           3.1110     2.4470    -0.6940 h1         1 7B4       0.060033
     21 H8           0.9010     3.3580     0.1310 hc         1 7B4       0.055367
     22 H9          -0.4790     2.8700    -0.8580 hc         1 7B4       0.055367
     23 H10         -0.5740     2.7800     0.9120 hc         1 7B4       0.055367
@<TRIPOS>BOND
     1     1     2 ar  
     2     1     4 ar  
     3     1     6 1   
     4     2     3 2   
     5     2     9 ar  
     6     3     5 1   
     7     3    17 1   
     8     4     7 ar  
     9     5    10 1   
    10     5    16 1   
    11     7     8 ar  
    12     8     9 ar  
    13     8    12 1   
    14     9    10 2   
    15    10    11 1   
    16    11    13 1   
    17    11    14 1   
    18    11    15 1   
    19    16    18 1   
    20    16    19 1   
    21    16    20 1   
    22    17    21 1   
    23    17    22 1   
    24    17    23 1   
@<TRIPOS>SUBSTRUCTURE
     1 7B4         1 TEMP              0 ****  ****    0 ROOT
