@<TRIPOS>MOLECULE
7B4
   23    24     1     0     0
SMALL
abcg2


@<TRIPOS>ATOM
      1 C4          -1.5900    -0.3010    -0.0950 ca         1 7B4       0.457000
      2 C5          -0.2250     0.0570    -0.0570 ca         1 7B4      -0.134000
      3 C6           0.5420     1.2080    -0.0150 cc         1 7B4      -0.065300
      4 N1          -2.0250    -1.5130    -0.1320 nb         1 7B4      -0.345000
      5 N2           1.8430     0.7900    -0.0060 na         1 7B4      -0.022800
      6 CL          -2.8170     0.9250    -0.0970 cl         1 7B4      -0.176000
      7 N           -1.1650    -2.5650    -0.1360 nb         1 7B4      -0.327000
      8 C3           0.1170    -2.3530    -0.1050 ca         1 7B4       0.340900
      9 C2           0.6720    -1.0590    -0.0650 ca         1 7B4      -0.145000
     10 C1           1.9600    -0.5650    -0.0290 cc         1 7B4      -0.083300
     11 C            3.2600    -1.2810    -0.0080 c3         1 7B4      -0.029900
     12 H3           0.7440    -3.2380    -0.1110 h4         1 7B4       0.023100
     13 H4           3.8480    -1.0390     0.8790 hc         1 7B4       0.052033
     14 H5           3.0880    -2.3550    -0.0040 hc         1 7B4       0.052033
     15 H6           3.8720    -1.0520    -0.8820 hc         1 7B4       0.052033
     16 C7           2.9750     1.6930     0.0690 c3         1 7B4       0.037900
     17 C8           0.1900     2.6520     0.0200 c3         1 7B4      -0.034900
     18 H1           3.2160     1.9220     1.1060 h1         1 7B4       0.060033
     19 H2           3.8410     1.2380    -0.4020 h1         1 7B4       0.060033
     20 H7           2.7490     2.6170    -0.4540 h1         1 7B4       0.060033
     21 H8           0.6020     3.1470     0.9010 hc         1 7B4       0.055367
     22 H9           0.5650     3.1820    -0.8590 hc         1 7B4       0.055367
     23 H10         -0.8870     2.7820     0.0440 hc         1 7B4       0.055367
@<TRIPOS>BOND
     1     1     2 ar  
     2     1     4 ar  
     3     1     6 1   
     4     2     3 2   
     5     2     9 ar  
     6     3     5 1   
     7     3    17 1   
     8     4     7 ar  
     9     5    10 1   
    10     5    16 1   
    11     7     8 ar  
    12     8     9 ar  
    13     8    12 1   
    14     9    10 2   
    15    10    11 1   
    16    11    13 1   
    17    11    14 1   
    18    11    15 1   
    19    16    18 1   
    20    16    19 1   
    21    16    20 1   
    22    17    21 1   
    23    17    22 1   
    24    17    23 1   
@<TRIPOS>SUBSTRUCTURE
     1 7B4         1 TEMP              0 ****  ****    0 ROOT
