@<TRIPOS>MOLECULE
7B5
   66    65     1     0     0
SMALL
No Charge or Current Charge


@<TRIPOS>ATOM
      1 CAC         -6.7660     2.6310    -1.3570 c3         1 7B5      -0.055400
      2 CAW         -8.0390     1.9260    -0.9100 c2         1 7B5      -0.114400
      3 CAD         -9.2810     2.7540    -1.1820 c3         1 7B5      -0.055400
      4 CAJ         -8.0950     0.7110    -0.3310 c2         1 7B5      -0.221200
      5 CAM         -6.9360    -0.2220    -0.0280 c3         1 7B5      -0.037200
      6 CAP         -6.2760     0.0890     1.3330 c3         1 7B5      -0.033200
      7 CAX         -5.0760    -0.7990     1.6280 c2         1 7B5      -0.122400
      8 CAE         -5.4660    -2.1680     2.1720 c3         1 7B5      -0.052900
      9 CAK         -3.8130    -0.3780     1.4260 c2         1 7B5      -0.212200
     10 CAN         -2.5300    -1.1410     1.7020 c3         1 7B5      -0.044200
     11 CAQ         -2.1560    -2.0920     0.5450 c3         1 7B5      -0.041200
     12 CAY         -0.8330    -2.8130     0.7750 c2         1 7B5      -0.082400
     13 CAF         -0.9530    -4.0120     1.7000 c3         1 7B5      -0.057900
     14 CAL          0.3340    -2.4500     0.2140 c2         1 7B5      -0.229200
     15 CAO          0.5590    -1.2800    -0.7180 c3         1 7B5       0.194800
     16 OAV          1.9770    -1.0850    -0.8360 os         1 7B5      -0.415000
     17 CBB          2.3980    -0.0310    -1.7490 c3         1 7B5       0.122300
     18 CBA          2.0640     1.4070    -1.2670 c          1 7B5       0.566100
     19 OAH          1.5870     1.6890    -0.1740 o          1 7B5      -0.454000
     20 OAS          2.2500     2.3220    -2.2750 os         1 7B5      -0.460100
     21 CAA          1.9570     3.7050    -1.9990 c3         1 7B5       0.151900
     22 CAR          3.9090    -0.2300    -2.0740 c3         1 7B5       0.217600
     23 OAW          4.7220    -0.4250    -0.8940 os         1 7B5      -0.583400
     24 PBC          5.0680     0.7500     0.1570 p5         1 7B5       1.372200
     25 OAU          6.5440     0.3480     0.6710 os         1 7B5      -0.597900
     26 CAI          7.5920     1.3260     0.6360 c3         1 7B5       0.196400
     27 OAI          4.9620     2.1300    -0.3910 o          1 7B5      -0.557000
     28 OAT          4.1340     0.4390     1.4350 os         1 7B5      -0.597900
     29 CAB          4.0980    -0.8860     1.9840 c3         1 7B5       0.196400
     30 H1          -6.7730     2.8020    -2.4400 hc         1 7B5       0.037867
     31 H2          -6.6670     3.6070    -0.8670 hc         1 7B5       0.037867
     32 H3          -5.8590     2.0640    -1.1220 hc         1 7B5       0.037867
     33 H4          -9.2420     3.7120    -0.6510 hc         1 7B5       0.037867
     34 H5          -9.3850     2.9690    -2.2530 hc         1 7B5       0.037867
     35 H6         -10.1940     2.2380    -0.8610 hc         1 7B5       0.037867
     36 H7          -9.0630     0.2970    -0.0440 ha         1 7B5       0.164000
     37 H8          -7.2910    -1.2590    -0.0340 hc         1 7B5       0.045200
     38 H9          -6.1750    -0.1630    -0.8150 hc         1 7B5       0.045200
     39 H10         -5.9640     1.1410     1.3250 hc         1 7B5       0.044700
     40 H11         -7.0230     0.0070     2.1320 hc         1 7B5       0.044700
     41 H12         -6.0240    -2.0720     3.1110 hc         1 7B5       0.037033
     42 H13         -6.1020    -2.7100     1.4630 hc         1 7B5       0.037033
     43 H14         -4.6010    -2.8080     2.3740 hc         1 7B5       0.037033
     44 H15         -3.6380     0.6250     1.0300 ha         1 7B5       0.168000
     45 H16         -1.7070    -0.4340     1.8630 hc         1 7B5       0.059200
     46 H17         -2.6180    -1.7120     2.6340 hc         1 7B5       0.059200
     47 H18         -2.9640    -2.8180     0.3920 hc         1 7B5       0.043200
     48 H19         -2.1170    -1.5020    -0.3790 hc         1 7B5       0.043200
     49 H20         -1.6660    -4.7470     1.3070 hc         1 7B5       0.042033
     50 H21          0.0090    -4.5250     1.8240 hc         1 7B5       0.042033
     51 H22         -1.2930    -3.7150     2.6990 hc         1 7B5       0.042033
     52 H23          1.2390    -3.0220     0.4210 ha         1 7B5       0.179000
     53 H24          0.1160    -1.5020    -1.6980 h1         1 7B5       0.031700
     54 H25          0.0690    -0.3860    -0.3120 h1         1 7B5       0.031700
     55 H26          1.8660    -0.1460    -2.7020 h1         1 7B5       0.061700
     56 H27          2.1540     4.3220    -2.8850 h1         1 7B5       0.048367
     57 H28          0.9030     3.8360    -1.7230 h1         1 7B5       0.048367
     58 H29          2.5810     4.0820    -1.1770 h1         1 7B5       0.048367
     59 H30          4.0000    -1.1120    -2.7220 h1         1 7B5       0.060700
     60 H31          4.2720     0.6250    -2.6600 h1         1 7B5       0.060700
     61 H32          8.5220     0.9030     1.0340 h1         1 7B5       0.043200
     62 H33          7.7840     1.6580    -0.3930 h1         1 7B5       0.043200
     63 H34          7.3310     2.2040     1.2420 h1         1 7B5       0.043200
     64 H35          3.4680    -0.9090     2.8820 h1         1 7B5       0.043200
     65 H36          3.6800    -1.6010     1.2630 h1         1 7B5       0.043200
     66 H37          5.1030    -1.2270     2.2670 h1         1 7B5       0.043200
@<TRIPOS>BOND
     1     1     2 1   
     2     1    30 1   
     3     1    31 1   
     4     1    32 1   
     5     2     3 1   
     6     2     4 2   
     7     3    33 1   
     8     3    34 1   
     9     3    35 1   
    10     4     5 1   
    11     4    36 1   
    12     5     6 1   
    13     5    37 1   
    14     5    38 1   
    15     6     7 1   
    16     6    39 1   
    17     6    40 1   
    18     7     8 1   
    19     7     9 2   
    20     8    41 1   
    21     8    42 1   
    22     8    43 1   
    23     9    10 1   
    24     9    44 1   
    25    10    11 1   
    26    10    45 1   
    27    10    46 1   
    28    11    12 1   
    29    11    47 1   
    30    11    48 1   
    31    12    13 1   
    32    12    14 2   
    33    13    49 1   
    34    13    50 1   
    35    13    51 1   
    36    14    15 1   
    37    14    52 1   
    38    15    16 1   
    39    15    53 1   
    40    15    54 1   
    41    16    17 1   
    42    17    18 1   
    43    17    22 1   
    44    17    55 1   
    45    18    19 2   
    46    18    20 1   
    47    20    21 1   
    48    21    56 1   
    49    21    57 1   
    50    21    58 1   
    51    22    23 1   
    52    22    59 1   
    53    22    60 1   
    54    23    24 1   
    55    24    25 1   
    56    24    27 2   
    57    24    28 1   
    58    25    26 1   
    59    26    61 1   
    60    26    62 1   
    61    26    63 1   
    62    28    29 1   
    63    29    64 1   
    64    29    65 1   
    65    29    66 1   
@<TRIPOS>SUBSTRUCTURE
     1 7B5         1 TEMP              0 ****  ****    0 ROOT
