@<TRIPOS>MOLECULE
7B5
   66    65     1     0     0
SMALL
abcg2


@<TRIPOS>ATOM
      1 CAC         -7.8080     1.5160    -1.4880 c3         1 7B5      -0.055400
      2 CAW         -8.2100     1.6780    -0.0510 c2         1 7B5      -0.114400
      3 CAD         -9.3110     2.6750     0.1730 c3         1 7B5      -0.055400
      4 CAJ         -7.6630     1.0140     0.9700 c2         1 7B5      -0.221200
      5 CAM         -6.5600     0.0030     0.9230 c3         1 7B5      -0.037200
      6 CAP         -5.2540     0.5500     1.5180 c3         1 7B5      -0.033200
      7 CAX         -4.1630    -0.4820     1.5530 c2         1 7B5      -0.122400
      8 CAE         -4.3650    -1.6440     2.4930 c3         1 7B5      -0.052900
      9 CAK         -3.0920    -0.3800     0.7630 c2         1 7B5      -0.212200
     10 CAN         -1.9840    -1.3800     0.6580 c3         1 7B5      -0.044200
     11 CAQ         -2.1550    -2.2810    -0.5770 c3         1 7B5      -0.041200
     12 CAY         -1.0540    -3.3040    -0.6870 c2         1 7B5      -0.082400
     13 CAF         -1.3500    -4.6270    -0.0460 c3         1 7B5      -0.057900
     14 CAL          0.1250    -3.0690    -1.2670 c2         1 7B5      -0.229200
     15 CAO          0.5490    -1.7990    -1.9240 c3         1 7B5       0.194800
     16 OAV          1.7000    -1.3150    -1.2420 os         1 7B5      -0.415000
     17 CBB          2.2460    -0.1630    -1.7950 c3         1 7B5       0.122300
     18 CBA          1.5370     1.0820    -1.2630 c          1 7B5       0.566100
     19 OAH          0.6640     1.0710    -0.4390 o          1 7B5      -0.454000
     20 OAS          2.0170     2.1780    -1.8300 os         1 7B5      -0.460100
     21 CAA          1.4730     3.4320    -1.4110 c3         1 7B5       0.151900
     22 CAR          3.7270    -0.1080    -1.4750 c3         1 7B5       0.217600
     23 OAW          3.8620     0.0860    -0.0630 os         1 7B5      -0.583400
     24 PBC          5.3170     0.1900     0.5850 p5         1 7B5       1.372200
     25 OAU          4.8510     0.2140     2.1050 os         1 7B5      -0.597900
     26 CAI          5.8360     0.2090     3.1470 c3         1 7B5       0.196400
     27 OAI          6.3030    -0.8320     0.1900 o          1 7B5      -0.557000
     28 OAT          5.8760     1.6430     0.2390 os         1 7B5      -0.597900
     29 CAB          5.0910     2.8270     0.4160 c3         1 7B5       0.196400
     30 H1          -8.6600     1.1960    -2.0930 hc         1 7B5       0.037867
     31 H2          -7.4790     2.4730    -1.9010 hc         1 7B5       0.037867
     32 H3          -7.0050     0.7970    -1.6370 hc         1 7B5       0.037867
     33 H4          -9.0280     3.6630    -0.2020 hc         1 7B5       0.037867
     34 H5         -10.2150     2.3860    -0.3700 hc         1 7B5       0.037867
     35 H6          -9.5700     2.7740     1.2270 hc         1 7B5       0.037867
     36 H7          -8.0340     1.2370     1.9690 ha         1 7B5       0.164000
     37 H8          -6.8670    -0.8840     1.4860 hc         1 7B5       0.045200
     38 H9          -6.3680    -0.3360    -0.0960 hc         1 7B5       0.045200
     39 H10         -4.9340     1.4170     0.9330 hc         1 7B5       0.044700
     40 H11         -5.4520     0.9120     2.5340 hc         1 7B5       0.044700
     41 H12         -5.2600    -1.5170     3.1020 hc         1 7B5       0.037033
     42 H13         -4.4710    -2.5890     1.9560 hc         1 7B5       0.037033
     43 H14         -3.5230    -1.7630     3.1790 hc         1 7B5       0.037033
     44 H15         -3.0230     0.4750     0.0950 ha         1 7B5       0.168000
     45 H16         -1.0240    -0.8630     0.5800 hc         1 7B5       0.059200
     46 H17         -1.9310    -2.0020     1.5550 hc         1 7B5       0.059200
     47 H18         -3.1190    -2.7940    -0.5060 hc         1 7B5       0.043200
     48 H19         -2.2150    -1.6570    -1.4710 hc         1 7B5       0.043200
     49 H20         -2.1930    -5.1160    -0.5420 hc         1 7B5       0.042033
     50 H21         -0.4970    -5.3040    -0.0790 hc         1 7B5       0.042033
     51 H22         -1.6410    -4.4980     0.9990 hc         1 7B5       0.042033
     52 H23          0.8680    -3.8620    -1.2760 ha         1 7B5       0.179000
     53 H24          0.8070    -1.9880    -2.9760 h1         1 7B5       0.031700
     54 H25         -0.2480    -1.0520    -1.9190 h1         1 7B5       0.031700
     55 H26          2.1680    -0.1570    -2.8940 h1         1 7B5       0.061700
     56 H27          2.0070     4.1910    -1.9740 h1         1 7B5       0.048367
     57 H28          0.4090     3.4960    -1.6330 h1         1 7B5       0.048367
     58 H29          1.6290     3.5940    -0.3450 h1         1 7B5       0.048367
     59 H30          4.1960    -1.0460    -1.7800 h1         1 7B5       0.060700
     60 H31          4.1970     0.7070    -2.0270 h1         1 7B5       0.060700
     61 H32          5.2960     0.2310     4.0880 h1         1 7B5       0.043200
     62 H33          6.4460    -0.6930     3.1050 h1         1 7B5       0.043200
     63 H34          6.4820     1.0860     3.0880 h1         1 7B5       0.043200
     64 H35          5.7760     3.6700     0.3860 h1         1 7B5       0.043200
     65 H36          4.3660     2.9320    -0.3910 h1         1 7B5       0.043200
     66 H37          4.5690     2.8330     1.3730 h1         1 7B5       0.043200
@<TRIPOS>BOND
     1     1     2 1   
     2     1    30 1   
     3     1    31 1   
     4     1    32 1   
     5     2     3 1   
     6     2     4 2   
     7     3    33 1   
     8     3    34 1   
     9     3    35 1   
    10     4     5 1   
    11     4    36 1   
    12     5     6 1   
    13     5    37 1   
    14     5    38 1   
    15     6     7 1   
    16     6    39 1   
    17     6    40 1   
    18     7     8 1   
    19     7     9 2   
    20     8    41 1   
    21     8    42 1   
    22     8    43 1   
    23     9    10 1   
    24     9    44 1   
    25    10    11 1   
    26    10    45 1   
    27    10    46 1   
    28    11    12 1   
    29    11    47 1   
    30    11    48 1   
    31    12    13 1   
    32    12    14 2   
    33    13    49 1   
    34    13    50 1   
    35    13    51 1   
    36    14    15 1   
    37    14    52 1   
    38    15    16 1   
    39    15    53 1   
    40    15    54 1   
    41    16    17 1   
    42    17    18 1   
    43    17    22 1   
    44    17    55 1   
    45    18    19 2   
    46    18    20 1   
    47    20    21 1   
    48    21    56 1   
    49    21    57 1   
    50    21    58 1   
    51    22    23 1   
    52    22    59 1   
    53    22    60 1   
    54    23    24 1   
    55    24    25 1   
    56    24    27 2   
    57    24    28 1   
    58    25    26 1   
    59    26    61 1   
    60    26    62 1   
    61    26    63 1   
    62    28    29 1   
    63    29    64 1   
    64    29    65 1   
    65    29    66 1   
@<TRIPOS>SUBSTRUCTURE
     1 7B5         1 TEMP              0 ****  ****    0 ROOT
