@<TRIPOS>MOLECULE
7B6
   70    72     1     0     0
SMALL
abcg2


@<TRIPOS>ATOM
      1 C2          -6.9020    -0.0130     1.6270 c3         1 7B6       0.145800
      2 C3          -6.2090     1.2130     1.0530 c3         1 7B6      -0.079400
      3 C7          -2.2000     3.1100    -1.3880 c          1 7B6       0.711000
      4 C8           6.0990    -0.3800     0.1870 c5         1 7B6      -0.089400
      5 C10          6.9280     0.7920    -0.3530 c5         1 7B6      -0.079700
      6 C14          1.2600    -0.5870     0.4490 c3         1 7B6       0.051700
      7 C15          2.4840     0.0550     1.0940 c          1 7B6       0.595100
      8 C19          5.2050     1.8210     0.6640 c5         1 7B6      -0.084700
      9 C20          4.9840     2.1540    -0.8140 c5         1 7B6      -0.077400
     10 C21          1.0760    -1.9920     1.0410 c3         1 7B6      -0.093400
     11 C22         -0.0480    -2.8120     0.4110 c6         1 7B6      -0.058700
     12 C24         -0.8610    -4.0480    -1.6460 c6         1 7B6      -0.072400
     13 C27          6.7340     1.8350     0.7550 c5         1 7B6      -0.086400
     14 C26          6.1600     1.4290    -1.5200 c5         1 7B6      -0.080400
     15 C18          4.9200     0.3250     0.9090 c5         1 7B6       0.114700
     16 N17          3.6350    -0.1410     0.4370 ns         1 7B6      -0.499900
     17 O16          2.4070     0.6510     2.1590 o          1 7B6      -0.611100
     18 C23          0.2390    -3.1750    -1.0470 c6         1 7B6      -0.071900
     19 C25         -1.0970    -5.3030    -0.8140 c6         1 7B6      -0.073400
     20 C28         -1.3980    -4.9450     0.6360 c6         1 7B6      -0.072400
     21 C29         -0.2920    -4.0800     1.2310 c6         1 7B6      -0.071900
     22 N13          0.1100     0.2480     0.6660 ns         1 7B6      -0.519900
     23 O12         -0.5780     0.3170    -1.5010 o          1 7B6      -0.657100
     24 N10         -1.9290     1.1390     0.1280 ns         1 7B6      -0.463900
     25 C6          -2.8110     1.8160    -0.7930 c3         1 7B6      -0.038300
     26 C5          -4.1380     2.1210    -0.0970 c3         1 7B6      -0.069400
     27 C4          -4.8430     0.8900     0.4590 c3         1 7B6      -0.076400
     28 N1          -8.2030     0.3310     2.1860 n8         1 7B6      -0.996200
     29 H1          -7.0570    -0.7420     0.8260 h1         1 7B6       0.022200
     30 H2          -6.2280    -0.4940     2.3500 h1         1 7B6       0.022200
     31 H3          -6.8500     1.6650     0.2900 hc         1 7B6       0.042200
     32 H4          -6.0910     1.9650     1.8430 hc         1 7B6       0.042200
     33 H7           7.9580     0.5260    -0.5920 hc         1 7B6       0.055700
     34 H8           1.4130    -0.6570    -0.6290 h1         1 7B6       0.091700
     35 H9           4.6680     2.4730     1.3540 hc         1 7B6       0.088700
     36 H10          4.0040     1.8410    -1.1790 hc         1 7B6       0.057700
     37 H11          5.0440     3.2330    -0.9640 hc         1 7B6       0.057700
     38 H12          2.0170    -2.5450     0.9500 hc         1 7B6       0.039200
     39 H13          0.8870    -1.8850     2.1150 hc         1 7B6       0.039200
     40 H14         -0.9700    -2.2170     0.4400 hc         1 7B6       0.067700
     41 H15         -1.7900    -3.4690    -1.6960 hc         1 7B6       0.038450
     42 H16         -0.6070    -4.3140    -2.6750 hc         1 7B6       0.038450
     43 H17          7.1200     1.5140     1.7260 hc         1 7B6       0.045200
     44 H18          7.1660     2.8090     0.5140 hc         1 7B6       0.045200
     45 H19          6.7910     2.1360    -2.0630 hc         1 7B6       0.038700
     46 H20          5.8240     0.6820    -2.2430 hc         1 7B6       0.038700
     47 H21          4.9700     0.1300     1.9820 h1         1 7B6       0.063700
     48 H22          3.5990    -0.5970    -0.4610 hn         1 7B6       0.313500
     49 H23          0.3490    -2.2710    -1.6500 hc         1 7B6       0.038200
     50 H24          1.1950    -3.7110    -1.0960 hc         1 7B6       0.038200
     51 H25         -1.9130    -5.8930    -1.2400 hc         1 7B6       0.029200
     52 H26         -0.2030    -5.9360    -0.8530 hc         1 7B6       0.029200
     53 H27         -2.3480    -4.4000     0.6820 hc         1 7B6       0.038450
     54 H28         -1.5300    -5.8500     1.2340 hc         1 7B6       0.038450
     55 H29          0.6370    -4.6620     1.2740 hc         1 7B6       0.038200
     56 H30         -0.5370    -3.8120     2.2630 hc         1 7B6       0.038200
     57 H31         -0.1450     0.4160     1.6270 hn         1 7B6       0.309500
     58 H32         -1.9220     1.5040     1.0690 hn         1 7B6       0.282500
     59 H33         -3.0210     1.1330    -1.6200 h1         1 7B6       0.062700
     60 H35         -3.9700     2.8440     0.7120 hc         1 7B6       0.047700
     61 H36         -4.7880     2.6180    -0.8190 hc         1 7B6       0.047700
     62 H37         -4.2200     0.4150     1.2220 hc         1 7B6       0.030700
     63 H38         -4.9610     0.1480    -0.3390 hc         1 7B6       0.030700
     64 H39         -8.6640    -0.5100     2.5080 hn         1 7B6       0.382000
     65 H40         -8.0670     0.8990     3.0130 hn         1 7B6       0.382000
     66 O8          -2.8500     3.6230    -2.3220 o          1 7B6      -0.724000
     67 C11         -0.7810     0.5650    -0.3160 c          1 7B6       0.657100
     68 H5           5.7640    -1.0500    -0.6090 hc         1 7B6       0.042200
     69 O9          -1.1450     3.5370    -0.8860 o          1 7B6      -0.724000
     70 H6           6.6730    -0.9860     0.8890 hc         1 7B6       0.042200
@<TRIPOS>BOND
     1     1     2 1   
     2     1    28 1   
     3     1    29 1   
     4     1    30 1   
     5     2    27 1   
     6     2    31 1   
     7     2    32 1   
     8     3    25 1   
     9     3    66 1   
    10     3    69 1   
    11     4     5 1   
    12     4    15 1   
    13     4    68 1   
    14     4    70 1   
    15     5    13 1   
    16     5    14 1   
    17     5    33 1   
    18     6     7 1   
    19     6    10 1   
    20     6    22 1   
    21     6    34 1   
    22     7    16 1   
    23     7    17 2   
    24     8     9 1   
    25     8    13 1   
    26     8    15 1   
    27     8    35 1   
    28     9    14 1   
    29     9    36 1   
    30     9    37 1   
    31    10    11 1   
    32    10    38 1   
    33    10    39 1   
    34    11    18 1   
    35    11    21 1   
    36    11    40 1   
    37    12    18 1   
    38    12    19 1   
    39    12    41 1   
    40    12    42 1   
    41    13    43 1   
    42    13    44 1   
    43    14    45 1   
    44    14    46 1   
    45    15    16 1   
    46    15    47 1   
    47    16    48 1   
    48    18    49 1   
    49    18    50 1   
    50    19    20 1   
    51    19    51 1   
    52    19    52 1   
    53    20    21 1   
    54    20    53 1   
    55    20    54 1   
    56    21    55 1   
    57    21    56 1   
    58    22    57 1   
    59    22    67 1   
    60    23    67 2   
    61    24    25 1   
    62    24    58 1   
    63    24    67 1   
    64    25    26 1   
    65    25    59 1   
    66    26    27 1   
    67    26    60 1   
    68    26    61 1   
    69    27    62 1   
    70    27    63 1   
    71    28    64 1   
    72    28    65 1   
@<TRIPOS>SUBSTRUCTURE
     1 7B6         1 TEMP              0 ****  ****    0 ROOT
