@<TRIPOS>MOLECULE
7B6
   70    72     1     0     0
SMALL
No Charge or Current Charge


@<TRIPOS>ATOM
      1 C2          -5.4190    -1.7840    -0.2030 c3         1 7B6       0.145800
      2 C3          -5.4820    -0.2750     0.1080 c3         1 7B6      -0.079400
      3 C7          -3.1830     4.3180    -0.0950 c          1 7B6       0.711000
      4 C8           6.0070    -0.7320     0.6440 c5         1 7B6      -0.089400
      5 C10          6.9480    -0.1570    -0.4690 c5         1 7B6      -0.079700
      6 C14          1.2100     0.1360     0.6340 c3         1 7B6       0.051700
      7 C15          2.5960     0.7220     1.0430 c          1 7B6       0.595100
      8 C19          5.4340     1.5140    -0.1780 c5         1 7B6      -0.084700
      9 C20          5.1210     0.9850    -1.6250 c5         1 7B6      -0.077400
     10 C21          0.8900    -1.1630     1.4280 c3         1 7B6      -0.093400
     11 C22         -0.4240    -1.9110     1.0390 c6         1 7B6      -0.058700
     12 C24         -1.6940    -3.2110    -0.7700 c6         1 7B6      -0.072400
     13 C27          6.9710     1.3570    -0.1440 c5         1 7B6      -0.086400
     14 C26          6.1350    -0.1880    -1.8030 c5         1 7B6      -0.080400
     15 C18          5.0330     0.4590     0.9180 c5         1 7B6       0.114700
     16 N17          3.6790    -0.0330     0.6290 ns         1 7B6      -0.499900
     17 O16          2.7220     1.7660     1.6760 o          1 7B6      -0.611100
     18 C23         -0.3740    -2.4900    -0.4050 c6         1 7B6      -0.071900
     19 C25         -2.0280    -4.3260     0.2500 c6         1 7B6      -0.073400
     20 C28         -2.0600    -3.7730     1.6960 c6         1 7B6      -0.072400
     21 C29         -0.7390    -3.0480     2.0510 c6         1 7B6      -0.071900
     22 N13          0.1400     1.1430     0.8280 ns         1 7B6      -0.519900
     23 O12         -0.9040     0.9330    -1.1910 o          1 7B6      -0.657100
     24 N10         -1.7550     2.3300     0.4070 ns         1 7B6      -0.463900
     25 C6          -2.9710     2.7870    -0.3090 c3         1 7B6      -0.038300
     26 C5          -4.2320     1.9800     0.1010 c3         1 7B6      -0.069400
     27 C4          -4.1650     0.4650    -0.2150 c3         1 7B6      -0.076400
     28 N1          -6.7020    -2.4510     0.0850 n8         1 7B6      -0.996200
     29 H1          -5.1760    -1.9350    -1.2640 h1         1 7B6       0.022200
     30 H2          -4.6360    -2.2550     0.4050 h1         1 7B6       0.022200
     31 H3          -6.2980     0.1780    -0.4710 hc         1 7B6       0.042200
     32 H4          -5.7230    -0.1340     1.1690 hc         1 7B6       0.042200
     33 H7           7.9290    -0.6420    -0.5270 hc         1 7B6       0.055700
     34 H8           1.2890    -0.1050    -0.4330 h1         1 7B6       0.091700
     35 H9           5.0670     2.5280     0.0220 hc         1 7B6       0.088700
     36 H10          4.0810     0.6780    -1.7770 hc         1 7B6       0.057700
     37 H11          5.3120     1.7690    -2.3670 hc         1 7B6       0.057700
     38 H12          1.7340    -1.8570     1.3260 hc         1 7B6       0.039200
     39 H13          0.8530    -0.8990     2.4930 hc         1 7B6       0.039200
     40 H14         -1.2400    -1.1780     1.0960 hc         1 7B6       0.067700
     41 H15         -2.5130    -2.4800    -0.8050 hc         1 7B6       0.038450
     42 H16         -1.6180    -3.6400    -1.7790 hc         1 7B6       0.038450
     43 H17          7.4140     1.5850     0.8340 hc         1 7B6       0.045200
     44 H18          7.4900     1.9570    -0.9030 hc         1 7B6       0.045200
     45 H19          6.7860    -0.0120    -2.6670 hc         1 7B6       0.038700
     46 H20          5.6380    -1.1500    -1.9740 hc         1 7B6       0.038700
     47 H21          5.1500     0.8500     1.9390 h1         1 7B6       0.063700
     48 H22          3.4900    -0.8830     0.1130 hn         1 7B6       0.313500
     49 H23         -0.1900    -1.6930    -1.1360 hc         1 7B6       0.038200
     50 H24          0.4660    -3.1930    -0.4970 hc         1 7B6       0.038200
     51 H25         -2.9960    -4.7800     0.0030 hc         1 7B6       0.029200
     52 H26         -1.2790    -5.1270     0.1780 hc         1 7B6       0.029200
     53 H27         -2.9030    -3.0780     1.8090 hc         1 7B6       0.038450
     54 H28         -2.2360    -4.5940     2.4040 hc         1 7B6       0.038450
     55 H29          0.0870    -3.7730     2.0690 hc         1 7B6       0.038200
     56 H30         -0.8130    -2.6360     3.0670 hc         1 7B6       0.038200
     57 H31          0.1190     1.6490     1.7030 hn         1 7B6       0.309500
     58 H32         -1.5930     2.6930     1.3370 hn         1 7B6       0.282500
     59 H33         -2.8120     2.6430    -1.3850 h1         1 7B6       0.062700
     60 H35         -4.4140     2.1150     1.1750 hc         1 7B6       0.047700
     61 H36         -5.0980     2.4080    -0.4190 hc         1 7B6       0.047700
     62 H37         -3.3510     0.0070     0.3600 hc         1 7B6       0.030700
     63 H38         -3.9260     0.3280    -1.2770 hc         1 7B6       0.030700
     64 H39         -6.5950    -3.4600    -0.0700 hn         1 7B6       0.382000
     65 H40         -6.8940    -2.3790     1.0910 hn         1 7B6       0.382000
     66 O8          -3.2420     5.0360    -1.0840 o          1 7B6      -0.724000
     67 C11         -0.8460     1.4270    -0.0780 c          1 7B6       0.657100
     68 H5           5.5120    -1.6620     0.3400 hc         1 7B6       0.042200
     69 O9          -3.2060     4.7530     1.0490 o          1 7B6      -0.724000
     70 H6           6.5770    -0.9680     1.5500 hc         1 7B6       0.042200
@<TRIPOS>BOND
     1     1     2 1   
     2     1    28 1   
     3     1    29 1   
     4     1    30 1   
     5     2    27 1   
     6     2    31 1   
     7     2    32 1   
     8     3    25 1   
     9     3    66 1   
    10     3    69 1   
    11     4     5 1   
    12     4    15 1   
    13     4    68 1   
    14     4    70 1   
    15     5    13 1   
    16     5    14 1   
    17     5    33 1   
    18     6     7 1   
    19     6    10 1   
    20     6    22 1   
    21     6    34 1   
    22     7    16 1   
    23     7    17 2   
    24     8     9 1   
    25     8    13 1   
    26     8    15 1   
    27     8    35 1   
    28     9    14 1   
    29     9    36 1   
    30     9    37 1   
    31    10    11 1   
    32    10    38 1   
    33    10    39 1   
    34    11    18 1   
    35    11    21 1   
    36    11    40 1   
    37    12    18 1   
    38    12    19 1   
    39    12    41 1   
    40    12    42 1   
    41    13    43 1   
    42    13    44 1   
    43    14    45 1   
    44    14    46 1   
    45    15    16 1   
    46    15    47 1   
    47    16    48 1   
    48    18    49 1   
    49    18    50 1   
    50    19    20 1   
    51    19    51 1   
    52    19    52 1   
    53    20    21 1   
    54    20    53 1   
    55    20    54 1   
    56    21    55 1   
    57    21    56 1   
    58    22    57 1   
    59    22    67 1   
    60    23    67 2   
    61    24    25 1   
    62    24    58 1   
    63    24    67 1   
    64    25    26 1   
    65    25    59 1   
    66    26    27 1   
    67    26    60 1   
    68    26    61 1   
    69    27    62 1   
    70    27    63 1   
    71    28    64 1   
    72    28    65 1   
@<TRIPOS>SUBSTRUCTURE
     1 7B6         1 TEMP              0 ****  ****    0 ROOT
