@<TRIPOS>MOLECULE
7B7
   54    56     1     0     0
SMALL
abcg2


@<TRIPOS>ATOM
      1 CAA          5.8560     2.7060    -2.0940 c3         1 7B7       0.150900
      2 OAT          5.1660     1.6120    -1.5270 os         1 7B7      -0.348100
      3 CAY          4.8810     1.6310    -0.2090 ca         1 7B7       0.151100
      4 CAG          5.2710     2.6550     0.6510 ca         1 7B7      -0.197000
      5 CAE          4.9560     2.5850     2.0020 ca         1 7B7      -0.070000
      6 CAF          4.2570     1.5000     2.5020 ca         1 7B7      -0.147000
      7 CAH          3.8660     0.4860     1.6360 ca         1 7B7      -0.060000
      8 CAZ          4.1590     0.5340     0.2820 ca         1 7B7      -0.113300
      9 CBA          3.7830    -0.5940    -0.6490 c5         1 7B7       0.169000
     10 CAP          4.8960    -1.6530    -0.7530 c5         1 7B7      -0.087400
     11 CAM          4.1520    -2.9740    -0.8940 c5         1 7B7      -0.096400
     12 CAQ          2.9420    -2.7770     0.0060 c5         1 7B7       0.100000
     13 NBB          2.6290    -1.3650    -0.1860 n          1 7B7      -0.414800
     14 C            1.4110    -0.8110    -0.1330 c          1 7B7       0.590100
     15 O            1.2070     0.3610    -0.4200 o          1 7B7      -0.606100
     16 CA           0.2790    -1.7250     0.3100 c3         1 7B7       0.040000
     17 N           -0.9130    -0.9500     0.4850 ns         1 7B7      -0.521900
     18 CAU         -2.1110    -1.5440     0.7190 c          1 7B7       0.653100
     19 OAC         -2.2150    -2.7550     0.8990 o          1 7B7      -0.657100
     20 NAS         -3.1730    -0.6970     0.7310 ns         1 7B7      -0.521900
     21 CAO         -4.5080    -1.1180     1.0940 c3         1 7B7       0.168300
     22 CAX         -5.5420    -0.2750     0.4000 ca         1 7B7      -0.158300
     23 CAK         -5.6600    -0.2800    -0.9890 ca         1 7B7      -0.054000
     24 CAI         -6.6000     0.5000    -1.6370 ca         1 7B7      -0.182000
     25 CAW         -7.4680     1.3280    -0.9110 ca         1 7B7       0.294000
     26 NAB         -8.4410     2.0670    -1.5520 nv         1 7B7      -1.068000
     27 CAJ         -7.3490     1.3390     0.4810 ca         1 7B7      -0.182000
     28 CAL         -6.4010     0.5510     1.1160 ca         1 7B7      -0.054000
     29 H1           6.8540     2.8280    -1.6640 h1         1 7B7       0.040367
     30 H2           5.9570     2.4910    -3.1550 h1         1 7B7       0.040367
     31 H3           5.3060     3.6430    -1.9750 h1         1 7B7       0.040367
     32 H4           5.8200     3.5120     0.2850 ha         1 7B7       0.116000
     33 H5           5.2670     3.3870     2.6590 ha         1 7B7       0.111000
     34 H6           4.0120     1.4400     3.5540 ha         1 7B7       0.115000
     35 H7           3.3180    -0.3620     2.0290 ha         1 7B7       0.115000
     36 H8           3.5550    -0.1930    -1.6400 h1         1 7B7       0.082700
     37 H9           5.5710    -1.4460    -1.5820 hc         1 7B7       0.059200
     38 H10          5.4910    -1.6540     0.1630 hc         1 7B7       0.059200
     39 H11          3.8260    -3.1290    -1.9240 hc         1 7B7       0.056200
     40 H12          4.7510    -3.8340    -0.5970 hc         1 7B7       0.056200
     41 H13          2.1080    -3.4170    -0.2760 h1         1 7B7       0.051200
     42 H14          3.1880    -2.9810     1.0530 h1         1 7B7       0.051200
     43 H15          0.1450    -2.5060    -0.4470 h1         1 7B7       0.063700
     44 H16          0.5650    -2.2370     1.2340 h1         1 7B7       0.063700
     45 H17         -0.8620     0.0210     0.2150 hn         1 7B7       0.336500
     46 H18         -3.0020     0.2960     0.7170 hn         1 7B7       0.309500
     47 H19         -4.6190    -2.1660     0.8120 h1         1 7B7       0.056200
     48 H20         -4.6620    -1.0660     2.1770 h1         1 7B7       0.056200
     49 H21         -5.0020    -0.9060    -1.5810 ha         1 7B7       0.113500
     50 H22         -6.6700     0.4700    -2.7190 ha         1 7B7       0.112500
     51 H23         -8.2470     2.3000    -2.5120 hn         1 7B7       0.446500
     52 H24         -8.7830     2.8670    -1.0420 hn         1 7B7       0.446500
     53 H25         -8.0020     1.9720     1.0710 ha         1 7B7       0.112500
     54 H26         -6.3300     0.5860     2.1980 ha         1 7B7       0.113500
@<TRIPOS>BOND
     1     1     2 1   
     2     1    29 1   
     3     1    30 1   
     4     1    31 1   
     5     2     3 1   
     6     3     4 ar  
     7     3     8 ar  
     8     4     5 ar  
     9     4    32 1   
    10     5     6 ar  
    11     5    33 1   
    12     6     7 ar  
    13     6    34 1   
    14     7     8 ar  
    15     7    35 1   
    16     8     9 1   
    17     9    10 1   
    18     9    13 1   
    19     9    36 1   
    20    10    11 1   
    21    10    37 1   
    22    10    38 1   
    23    11    12 1   
    24    11    39 1   
    25    11    40 1   
    26    12    13 1   
    27    12    41 1   
    28    12    42 1   
    29    13    14 1   
    30    14    15 2   
    31    14    16 1   
    32    16    17 1   
    33    16    43 1   
    34    16    44 1   
    35    17    18 1   
    36    17    45 1   
    37    18    19 2   
    38    18    20 1   
    39    20    21 1   
    40    20    46 1   
    41    21    22 1   
    42    21    47 1   
    43    21    48 1   
    44    22    23 ar  
    45    22    28 ar  
    46    23    24 ar  
    47    23    49 1   
    48    24    25 ar  
    49    24    50 1   
    50    25    26 1   
    51    25    27 ar  
    52    26    51 1   
    53    26    52 1   
    54    27    28 ar  
    55    27    53 1   
    56    28    54 1   
@<TRIPOS>SUBSTRUCTURE
     1 7B7         1 TEMP              0 ****  ****    0 ROOT
