@<TRIPOS>MOLECULE
7B7
   54    56     1     0     0
SMALL
No Charge or Current Charge


@<TRIPOS>ATOM
      1 CAA          5.3900     2.9070    -2.2930 c3         1 7B7       0.150900
      2 OAT          4.9380     1.7170    -1.6220 os         1 7B7      -0.348100
      3 CAY          4.5800     1.7050    -0.2860 ca         1 7B7       0.151100
      4 CAG          4.6500     2.8730     0.5080 ca         1 7B7      -0.197000
      5 CAE          4.2940     2.8310     1.8650 ca         1 7B7      -0.070000
      6 CAF          3.8700     1.6240     2.4380 ca         1 7B7      -0.147000
      7 CAH          3.7980     0.4610     1.6570 ca         1 7B7      -0.060000
      8 CAZ          4.1460     0.4860     0.2860 ca         1 7B7      -0.113300
      9 CBA          4.0690    -0.7880    -0.5750 c5         1 7B7       0.169000
     10 CAP          5.2250    -1.7220    -0.1110 c5         1 7B7      -0.087400
     11 CAM          4.6310    -3.1190    -0.4130 c5         1 7B7      -0.096400
     12 CAQ          3.1870    -2.9790     0.1340 c5         1 7B7       0.100000
     13 NBB          2.8670    -1.5770    -0.2160 n          1 7B7      -0.414800
     14 C            1.5510    -1.0900    -0.3600 c          1 7B7       0.590100
     15 O            1.3350     0.0100    -0.8590 o          1 7B7      -0.606100
     16 CA           0.3910    -1.9860     0.1560 c3         1 7B7       0.040000
     17 N           -0.9280    -1.3260     0.0330 ns         1 7B7      -0.521900
     18 CAU         -2.1080    -1.8840     0.4290 c          1 7B7       0.653100
     19 OAC         -2.1930    -2.9920     0.9280 o          1 7B7      -0.657100
     20 NAS         -3.1800    -1.0700     0.2080 ns         1 7B7      -0.521900
     21 CAO         -4.5550    -1.4250     0.5390 c3         1 7B7       0.168300
     22 CAX         -5.5090    -0.3010     0.1680 ca         1 7B7      -0.158300
     23 CAK         -6.0930    -0.2610    -1.1130 ca         1 7B7      -0.054000
     24 CAI         -6.9740     0.7810    -1.4540 ca         1 7B7      -0.182000
     25 CAW         -7.2740     1.7850    -0.5230 ca         1 7B7       0.294000
     26 NAB         -8.1300     2.7970    -0.8580 nv         1 7B7      -1.068000
     27 CAJ         -6.6930     1.7490     0.7530 ca         1 7B7      -0.182000
     28 CAL         -5.8110     0.7100     1.1000 ca         1 7B7      -0.054000
     29 H1           6.3020     3.2980    -1.8230 h1         1 7B7       0.040367
     30 H2           5.6160     2.6880    -3.3440 h1         1 7B7       0.040367
     31 H3           4.6170     3.6870    -2.2670 h1         1 7B7       0.040367
     32 H4           4.9790     3.8210     0.0930 ha         1 7B7       0.116000
     33 H5           4.3500     3.7320     2.4730 ha         1 7B7       0.111000
     34 H6           3.5970     1.5890     3.4910 ha         1 7B7       0.115000
     35 H7           3.4700    -0.4660     2.1230 ha         1 7B7       0.115000
     36 H8           4.0990    -0.5900    -1.6560 h1         1 7B7       0.082700
     37 H9           6.1570    -1.5290    -0.6530 hc         1 7B7       0.059200
     38 H10          5.4440    -1.6220     0.9580 hc         1 7B7       0.059200
     39 H11          4.6260    -3.3210    -1.4910 hc         1 7B7       0.056200
     40 H12          5.1860    -3.9310     0.0700 hc         1 7B7       0.056200
     41 H13          2.5090    -3.7030    -0.3370 h1         1 7B7       0.051200
     42 H14          3.1520    -3.1210     1.2230 h1         1 7B7       0.051200
     43 H15          0.3840    -2.9160    -0.4260 h1         1 7B7       0.063700
     44 H16          0.5840    -2.2280     1.2080 h1         1 7B7       0.063700
     45 H17         -0.9600    -0.3980    -0.3730 hn         1 7B7       0.336500
     46 H18         -3.0080    -0.1670    -0.2120 hn         1 7B7       0.309500
     47 H19         -4.8280    -2.3420    -0.0000 h1         1 7B7       0.056200
     48 H20         -4.6210    -1.6320     1.6160 h1         1 7B7       0.056200
     49 H21         -5.8650    -1.0350    -1.8430 ha         1 7B7       0.113500
     50 H22         -7.4210     0.8030    -2.4440 ha         1 7B7       0.112500
     51 H23         -8.4360     2.9020    -1.8230 hn         1 7B7       0.446500
     52 H24         -8.2350     3.5990    -0.2390 hn         1 7B7       0.446500
     53 H25         -6.9210     2.5250     1.4790 ha         1 7B7       0.112500
     54 H26         -5.3640     0.6920     2.0920 ha         1 7B7       0.113500
@<TRIPOS>BOND
     1     1     2 1   
     2     1    29 1   
     3     1    30 1   
     4     1    31 1   
     5     2     3 1   
     6     3     4 ar  
     7     3     8 ar  
     8     4     5 ar  
     9     4    32 1   
    10     5     6 ar  
    11     5    33 1   
    12     6     7 ar  
    13     6    34 1   
    14     7     8 ar  
    15     7    35 1   
    16     8     9 1   
    17     9    10 1   
    18     9    13 1   
    19     9    36 1   
    20    10    11 1   
    21    10    37 1   
    22    10    38 1   
    23    11    12 1   
    24    11    39 1   
    25    11    40 1   
    26    12    13 1   
    27    12    41 1   
    28    12    42 1   
    29    13    14 1   
    30    14    15 2   
    31    14    16 1   
    32    16    17 1   
    33    16    43 1   
    34    16    44 1   
    35    17    18 1   
    36    17    45 1   
    37    18    19 2   
    38    18    20 1   
    39    20    21 1   
    40    20    46 1   
    41    21    22 1   
    42    21    47 1   
    43    21    48 1   
    44    22    23 ar  
    45    22    28 ar  
    46    23    24 ar  
    47    23    49 1   
    48    24    25 ar  
    49    24    50 1   
    50    25    26 1   
    51    25    27 ar  
    52    26    51 1   
    53    26    52 1   
    54    27    28 ar  
    55    27    53 1   
    56    28    54 1   
@<TRIPOS>SUBSTRUCTURE
     1 7B7         1 TEMP              0 ****  ****    0 ROOT
