@<TRIPOS>MOLECULE
7B8
   65    67     1     0     0
SMALL
bcc


@<TRIPOS>ATOM
      1 OBK        -10.6550     3.2970     1.9200 o          1 7B8      -0.814800
      2 CBL        -10.4890     2.3810     1.0950 c          1 7B8       0.925200
      3 OBM        -11.0910     2.2120     0.0200 o          1 7B8      -0.814800
      4 CBI         -9.4210     1.3460     1.4420 ca         1 7B8      -0.155600
      5 CBJ         -9.1440     0.3080     0.5610 ca         1 7B8      -0.016000
      6 CBH         -8.7140     1.4140     2.6390 ca         1 7B8      -0.047000
      7 CBE         -7.7500     0.4670     2.9570 ca         1 7B8      -0.178000
      8 CBF         -7.4710    -0.5700     2.0790 ca         1 7B8      -0.070000
      9 CBG         -8.1770    -0.6330     0.8840 ca         1 7B8      -0.332500
     10 SAY         -7.8060    -1.9110    -0.2840 sy         1 7B8       1.292200
     11 OAZ         -7.1270    -2.9860     0.4210 o          1 7B8      -0.620300
     12 OAE         -9.0010    -2.1930    -1.0620 o          1 7B8      -0.620300
     13 NAX         -6.7200    -1.2740    -1.3510 n7         1 7B8      -0.827100
     14 CAW         -5.4490    -0.7740    -0.8510 c3         1 7B8       0.188800
     15 CAV         -4.4260    -0.8420    -1.9790 c3         1 7B8       0.042300
     16 NAU         -3.1460    -0.3280    -1.5470 na         1 7B8       0.106400
     17 CAT         -2.1320    -0.9930    -0.9660 cc         1 7B8      -0.233600
     18 NAD         -2.8800     0.9640    -1.6210 nc         1 7B8      -0.192800
     19 NAC         -1.7130     1.1580    -1.1120 nd         1 7B8      -0.361000
     20 CAS         -1.2050    -0.0220    -0.6890 cd         1 7B8       0.254600
     21 CAR          0.1500    -0.1480    -0.0860 c3         1 7B8      -0.105700
     22 CAQ          1.2370    -0.1390    -1.1550 c3         1 7B8       0.104000
     23 NAP          2.5440    -0.2340    -0.5410 ns         1 7B8      -0.572900
     24 CAO          3.6740    -0.3200    -1.2570 c          1 7B8       0.662100
     25 OAB          3.6790    -0.2910    -2.4810 o          1 7B8      -0.611100
     26 CAN          4.9420    -0.4930    -0.4470 c3         1 7B8      -0.149400
     27 CAM          6.1160     0.2350    -1.0770 c3         1 7B8      -0.151400
     28 CAL          7.4300    -0.0740    -0.3940 c          1 7B8       0.671100
     29 OBD          7.6140    -1.0870     0.2560 o          1 7B8      -0.571100
     30 NAK          8.3820     0.8720    -0.6080 ns         1 7B8      -0.477100
     31 CAJ          9.7240     0.8880    -0.2210 ca         1 7B8       0.071600
     32 CAI         10.3130    -0.0600     0.6120 ca         1 7B8      -0.102000
     33 CBC         10.5050     1.9390    -0.7110 ca         1 7B8      -0.170000
     34 CBB         11.8420     2.0370    -0.3760 ca         1 7B8      -0.109000
     35 CBA         12.4290     1.1000     0.4630 ca         1 7B8      -0.138000
     36 CAH         11.6570     0.0560     0.9620 ca         1 7B8      -0.125600
     37 CAG         12.2220    -1.0000     1.8630 c          1 7B8       0.679700
     38 OAF         11.7010    -2.1040     1.9480 o          1 7B8      -0.594100
     39 NAA         13.3190    -0.6610     2.5550 nt         1 7B8      -0.672000
     40 H2          -9.6960     0.2460    -0.3680 ha         1 7B8       0.168000
     41 H3          -8.9240     2.2160     3.3330 ha         1 7B8       0.152000
     42 H4          -7.2140     0.5300     3.8950 ha         1 7B8       0.113000
     43 H5          -6.7260    -1.3120     2.3320 ha         1 7B8       0.127000
     44 H6          -7.1710    -0.6520    -2.0140 hn         1 7B8       0.429800
     45 H7          -5.5310     0.2500    -0.4770 h1         1 7B8       0.068700
     46 H8          -5.1140    -1.4050    -0.0270 h1         1 7B8       0.068700
     47 H9          -4.2930    -1.8700    -2.3090 h1         1 7B8       0.079200
     48 H10         -4.7500    -0.2490    -2.8350 h1         1 7B8       0.079200
     49 H11         -2.1440    -2.0580    -0.8030 h4         1 7B8       0.188000
     50 H12          0.3140     0.6780     0.6120 hc         1 7B8       0.054200
     51 H13          0.2060    -1.0730     0.4920 hc         1 7B8       0.054200
     52 H14          1.0840    -0.9750    -1.8420 h1         1 7B8       0.060200
     53 H15          1.1640     0.7780    -1.7470 h1         1 7B8       0.060200
     54 H16          2.6020    -0.2500     0.4640 hn         1 7B8       0.313500
     55 H17          4.7930    -0.1600     0.5820 hc         1 7B8       0.072700
     56 H18          5.1490    -1.5650    -0.3970 hc         1 7B8       0.072700
     57 H19          6.2170    -0.0550    -2.1270 hc         1 7B8       0.075200
     58 H20          5.9400     1.3130    -1.0770 hc         1 7B8       0.075200
     59 H21          8.0980     1.6630    -1.1670 hn         1 7B8       0.317500
     60 H22          9.7390    -0.8820     1.0040 ha         1 7B8       0.188000
     61 H23         10.0590     2.6810    -1.3630 ha         1 7B8       0.130000
     62 H24         12.4330     2.8480    -0.7780 ha         1 7B8       0.132000
     63 H25         13.4820     1.1870     0.6940 ha         1 7B8       0.129000
     64 H26         13.6650     0.2810     2.5970 hn         1 7B8       0.312000
     65 H27         13.7250    -1.3230     3.1970 hn         1 7B8       0.312000
@<TRIPOS>BOND
     1     1     2 1   
     2     2     3 1   
     3     2     4 1   
     4     4     5 ar  
     5     4     6 ar  
     6     5     9 ar  
     7     5    40 1   
     8     6     7 ar  
     9     6    41 1   
    10     7     8 ar  
    11     7    42 1   
    12     8     9 ar  
    13     8    43 1   
    14     9    10 1   
    15    10    11 2   
    16    10    12 2   
    17    10    13 1   
    18    13    14 1   
    19    13    44 1   
    20    14    15 1   
    21    14    45 1   
    22    14    46 1   
    23    15    16 1   
    24    15    47 1   
    25    15    48 1   
    26    16    17 1   
    27    16    18 1   
    28    17    20 2   
    29    17    49 1   
    30    18    19 2   
    31    19    20 1   
    32    20    21 1   
    33    21    22 1   
    34    21    50 1   
    35    21    51 1   
    36    22    23 1   
    37    22    52 1   
    38    22    53 1   
    39    23    24 1   
    40    23    54 1   
    41    24    25 2   
    42    24    26 1   
    43    26    27 1   
    44    26    55 1   
    45    26    56 1   
    46    27    28 1   
    47    27    57 1   
    48    27    58 1   
    49    28    29 2   
    50    28    30 1   
    51    30    31 1   
    52    30    59 1   
    53    31    32 ar  
    54    31    33 ar  
    55    32    36 ar  
    56    32    60 1   
    57    33    34 ar  
    58    33    61 1   
    59    34    35 ar  
    60    34    62 1   
    61    35    36 ar  
    62    35    63 1   
    63    36    37 1   
    64    37    38 2   
    65    37    39 1   
    66    39    64 1   
    67    39    65 1   
@<TRIPOS>SUBSTRUCTURE
     1 7B8         1 TEMP              0 ****  ****    0 ROOT
