@<TRIPOS>MOLECULE
7B8
   65    67     1     0     0
SMALL
No Charge or Current Charge


@<TRIPOS>ATOM
      1 OBK         -6.1680     2.4830     4.1240 o          1 7B8      -0.709500
      2 CBL         -6.6280     2.3570     2.9980 c          1 7B8       0.714600
      3 OBM         -6.8890     3.3090     2.2760 o          1 7B8      -0.709500
      4 CBI         -6.8880     0.9580     2.4740 ca         1 7B8      -0.155600
      5 CBJ         -7.4260     0.7620     1.1810 ca         1 7B8       0.002000
      6 CBH         -6.5960    -0.1750     3.2690 ca         1 7B8      -0.029000
      7 CBE         -6.8360    -1.4710     2.7810 ca         1 7B8      -0.160000
      8 CBF         -7.3710    -1.6580     1.4980 ca         1 7B8      -0.052000
      9 CBG         -7.6680    -0.5410     0.6930 ca         1 7B8      -0.332500
     10 SAY         -8.3400    -0.7770    -0.9630 sy         1 7B8       1.150600
     11 OAZ         -9.1960    -1.9650    -0.9690 o          1 7B8      -0.549500
     12 OAE         -8.7600     0.5040    -1.5320 o          1 7B8      -0.549500
     13 NAX         -6.9790    -1.2200    -1.8200 n7         1 7B8      -0.882300
     14 CAW         -5.7250    -0.4760    -1.5710 c3         1 7B8       0.188800
     15 CAV         -4.6010    -0.9730    -2.5010 c3         1 7B8       0.071600
     16 NAU         -3.3230    -0.2920    -2.2550 na         1 7B8       0.127800
     17 CAT         -2.3360    -0.6630    -1.3760 cc         1 7B8      -0.201000
     18 NAD         -2.9960     0.8510    -2.9210 nc         1 7B8      -0.192800
     19 NAC         -1.8200     1.2140    -2.4840 nd         1 7B8      -0.361000
     20 CAS         -1.3890     0.3060    -1.5400 cd         1 7B8       0.189300
     21 CAR         -0.0660     0.4380    -0.8380 c3         1 7B8      -0.105700
     22 CAQ          1.1180     0.0750    -1.7540 c3         1 7B8       0.104000
     23 NAP          2.4080     0.2030    -1.0690 ns         1 7B8      -0.505900
     24 CAO          2.9300    -0.7270    -0.1970 c          1 7B8       0.595100
     25 OAB          2.3470    -1.7650     0.0790 o          1 7B8      -0.611100
     26 CAN          4.2800    -0.3520     0.4230 c3         1 7B8      -0.149400
     27 CAM          5.4440    -1.1970    -0.1680 c3         1 7B8      -0.151400
     28 CAL          6.7950    -0.8490     0.4740 c          1 7B8       0.604100
     29 OBD          7.0670    -1.2040     1.6140 o          1 7B8      -0.571100
     30 NAK          7.6590    -0.1440    -0.3550 ns         1 7B8      -0.151000
     31 CAJ          8.9730     0.3670    -0.1610 ca         1 7B8      -0.021000
     32 CAI          9.6660     0.3030     1.0690 ca         1 7B8      -0.084000
     33 CBC          9.5980     0.9730    -1.2650 ca         1 7B8      -0.152000
     34 CBB         10.8920     1.5010    -1.1510 ca         1 7B8      -0.091000
     35 CBA         11.5780     1.4330     0.0710 ca         1 7B8      -0.120000
     36 CAH         10.9730     0.8330     1.2000 ca         1 7B8      -0.125600
     37 CAG         11.6830     0.7440     2.5370 c          1 7B8       0.612700
     38 OAF         11.1770     0.2320     3.5220 o          1 7B8      -0.594100
     39 NAA         12.9300     1.2570     2.6360 nt         1 7B8      -0.605000
     40 H2          -7.6540     1.6240     0.5560 ha         1 7B8       0.150000
     41 H3          -6.1800    -0.0560     4.2670 ha         1 7B8       0.134000
     42 H4          -6.6060    -2.3330     3.4010 ha         1 7B8       0.095000
     43 H5          -7.5470    -2.6670     1.1290 ha         1 7B8       0.109000
     44 H6          -7.3030    -1.0390    -2.7700 hn         1 7B8       0.485000
     45 H7          -5.8670     0.6030    -1.7310 h1         1 7B8       0.068700
     46 H8          -5.3870    -0.6140    -0.5350 h1         1 7B8       0.068700
     47 H9          -4.4560    -2.0490    -2.3490 h1         1 7B8       0.079200
     48 H10         -4.8900    -0.8140    -3.5470 h1         1 7B8       0.079200
     49 H11         -2.3820    -1.5370    -0.7410 h4         1 7B8       0.170000
     50 H12          0.0610     1.4640    -0.4750 hc         1 7B8       0.054200
     51 H13         -0.0520    -0.2110     0.0460 hc         1 7B8       0.054200
     52 H14          1.0030    -0.9550    -2.1160 h1         1 7B8       0.060200
     53 H15          1.1200     0.7400    -2.6290 h1         1 7B8       0.060200
     54 H16          2.9610     1.0360    -1.2340 hn         1 7B8       0.313500
     55 H17          4.4920     0.7100     0.2460 hc         1 7B8       0.072700
     56 H18          4.2260    -0.5400     1.5030 hc         1 7B8       0.072700
     57 H19          5.2360    -2.2570     0.0230 hc         1 7B8       0.075200
     58 H20          5.4870    -1.0220    -1.2510 hc         1 7B8       0.075200
     59 H21          7.2810     0.0490    -1.2740 hn         1 7B8       0.151000
     60 H22          9.2040    -0.1510     1.9400 ha         1 7B8       0.170000
     61 H23          9.0790     1.0340    -2.2200 ha         1 7B8       0.112000
     62 H24         11.3650     1.9670    -2.0140 ha         1 7B8       0.114000
     63 H25         12.5790     1.8530     0.1240 ha         1 7B8       0.111000
     64 H26         13.3670     1.6850     1.8350 hn         1 7B8       0.312000
     65 H27         13.4140     1.2060     3.5200 hn         1 7B8       0.312000
@<TRIPOS>BOND
     1     1     2 1   
     2     2     3 1   
     3     2     4 1   
     4     4     5 ar  
     5     4     6 ar  
     6     5     9 ar  
     7     5    40 1   
     8     6     7 ar  
     9     6    41 1   
    10     7     8 ar  
    11     7    42 1   
    12     8     9 ar  
    13     8    43 1   
    14     9    10 1   
    15    10    11 2   
    16    10    12 2   
    17    10    13 1   
    18    13    14 1   
    19    13    44 1   
    20    14    15 1   
    21    14    45 1   
    22    14    46 1   
    23    15    16 1   
    24    15    47 1   
    25    15    48 1   
    26    16    17 1   
    27    16    18 1   
    28    17    20 2   
    29    17    49 1   
    30    18    19 2   
    31    19    20 1   
    32    20    21 1   
    33    21    22 1   
    34    21    50 1   
    35    21    51 1   
    36    22    23 1   
    37    22    52 1   
    38    22    53 1   
    39    23    24 1   
    40    23    54 1   
    41    24    25 2   
    42    24    26 1   
    43    26    27 1   
    44    26    55 1   
    45    26    56 1   
    46    27    28 1   
    47    27    57 1   
    48    27    58 1   
    49    28    29 2   
    50    28    30 1   
    51    30    31 1   
    52    30    59 1   
    53    31    32 ar  
    54    31    33 ar  
    55    32    36 ar  
    56    32    60 1   
    57    33    34 ar  
    58    33    61 1   
    59    34    35 ar  
    60    34    62 1   
    61    35    36 ar  
    62    35    63 1   
    63    36    37 1   
    64    37    38 2   
    65    37    39 1   
    66    39    64 1   
    67    39    65 1   
@<TRIPOS>SUBSTRUCTURE
     1 7B8         1 TEMP              0 ****  ****    0 ROOT
