@<TRIPOS>MOLECULE
7BA
   43    44     1     0     0
SMALL
bcc


@<TRIPOS>ATOM
      1 O4          -2.8150     0.8660     0.1500 ca         1 7BA      -0.017000
      2 O5          -1.5710     1.0000     0.7750 ca         1 7BA       0.110000
      3 O6          -0.7680    -0.1160     0.9800 ca         1 7BA      -0.233000
      4 O7          -4.9640    -1.6770    -1.2820 c3         1 7BA      -0.067500
      5 O8          -4.4910     2.2730     0.9710 c3         1 7BA      -0.064000
      6 O9           0.0380     2.4600     1.7120 c3         1 7BA      -0.067500
      7 O3          -3.2590    -0.3990    -0.2460 ca         1 7BA       0.110000
      8 O13          6.1070     1.0350    -0.4870 c3         1 7BA      -0.056000
      9 O10          3.9440     0.0570    -0.5810 ca         1 7BA       0.003000
     10 O14          2.6850     0.0550    -1.2100 ca         1 7BA       0.071000
     11 O2           1.7160    -0.8390    -0.8030 ca         1 7BA      -0.125000
     12 O3           2.4090     0.9080    -2.2170 oh         1 7BA      -0.246000
     13 O11          4.2010    -0.8550     0.4300 ca         1 7BA      -0.176000
     14 O12          3.2160    -1.7540     0.8260 ca         1 7BA      -0.125000
     15 O1           1.9570    -1.7450     0.2350 ca         1 7BA      -0.044000
     16 O1B          0.9480    -2.7140     0.6820 c2         1 7BA      -0.106000
     17 O16         -1.2000    -1.3710     0.5570 ca         1 7BA       0.023000
     18 O15         -2.4510    -1.5140    -0.0380 ca         1 7BA      -0.233000
     19 O1          -4.4720    -0.4330    -0.8240 os         1 7BA      -0.184000
     20 O4          -3.5820     1.9640    -0.0770 os         1 7BA      -0.188000
     21 O5          -1.2360     2.2510     1.1380 os         1 7BA      -0.184000
     22 O1           0.1910    -0.0260     1.4690 ho         1 7BA       0.141500
     23 O2          -5.9300    -1.4770    -1.7380 ho         1 7BA       0.080667
     24 O3          -4.3080    -2.1250    -2.0310 ho         1 7BA       0.080667
     25 O4          -5.1050    -2.3890    -0.4640 ho         1 7BA       0.080667
     26 O5          -5.2390     1.4880     1.1040 ho         1 7BA       0.072000
     27 O6          -3.9750     2.4300     1.9210 ho         1 7BA       0.072000
     28 O7          -4.9990     3.1950     0.6950 ho         1 7BA       0.072000
     29 O8           0.1510     1.9340     2.6640 ho         1 7BA       0.080667
     30 O9           0.8430     2.1480     1.0410 ho         1 7BA       0.080667
     31 O10          0.1250     3.5290     1.8910 ho         1 7BA       0.080667
     32 O11          6.6370     1.8280    -1.0080 ho         1 7BA       0.081333
     33 O12          6.0710     1.2740     0.5790 ho         1 7BA       0.081333
     34 O13          6.6510     0.0970    -0.6210 ho         1 7BA       0.081333
     35 O14          0.7590    -0.8280    -1.3100 ho         1 7BA       0.160000
     36 O15          3.1740     1.4670    -2.3990 ho         1 7BA       0.240000
     37 O16          5.1660    -0.8820     0.9180 ho         1 7BA       0.135000
     38 O17          3.4370    -2.4630     1.6140 ho         1 7BA       0.132000
     39 O18          1.3470    -3.6800     0.9750 ho         1 7BA       0.123000
     40 O19         -0.9410    -3.4610     1.0520 ho         1 7BA       0.125000
     41 O20         -2.7770    -2.5000    -0.3420 ho         1 7BA       0.141500
     42 O1A         -0.3810    -2.5740     0.7710 c2         1 7BA      -0.119000
     43 O2           4.8120     0.9750    -1.0530 os         1 7BA      -0.226000
@<TRIPOS>BOND
     1     1     2 ar  
     2     1     7 ar  
     3     1    20 1   
     4     2     3 ar  
     5     2    21 1   
     6     3    17 ar  
     7     3    22 1   
     8     4    19 1   
     9     4    23 1   
    10     4    24 1   
    11     4    25 1   
    12     5    20 1   
    13     5    26 1   
    14     5    27 1   
    15     5    28 1   
    16     6    21 1   
    17     6    29 1   
    18     6    30 1   
    19     6    31 1   
    20     7    18 ar  
    21     7    19 1   
    22     8    32 1   
    23     8    33 1   
    24     8    34 1   
    25     8    43 1   
    26     9    10 ar  
    27     9    13 ar  
    28     9    43 1   
    29    10    11 ar  
    30    10    12 1   
    31    11    15 ar  
    32    11    35 1   
    33    12    36 1   
    34    13    14 ar  
    35    13    37 1   
    36    14    15 ar  
    37    14    38 1   
    38    15    16 1   
    39    16    39 1   
    40    16    42 2   
    41    17    18 ar  
    42    17    42 1   
    43    18    41 1   
    44    40    42 1   
@<TRIPOS>SUBSTRUCTURE
     1 7BA         1 TEMP              0 ****  ****    0 ROOT
