@<TRIPOS>MOLECULE
7BA
   43    44     1     0     0
SMALL
No Charge or Current Charge


@<TRIPOS>ATOM
      1 C4          -2.8420     0.9120     0.5720 ca         1 7BA       0.028100
      2 C5          -1.4790     0.9960     0.9440 ca         1 7BA       0.155100
      3 C6          -0.6700    -0.1580     0.9530 ca         1 7BA      -0.215000
      4 C7          -5.3180    -1.7340    -0.5340 c3         1 7BA       0.145400
      5 C8          -4.9540     2.2420     0.2470 c3         1 7BA       0.148900
      6 C9           0.4230     2.4380     1.6110 c3         1 7BA       0.145400
      7 C3          -3.3830    -0.3600     0.2060 ca         1 7BA       0.155100
      8 C13          6.2810     1.1280    -0.3570 c3         1 7BA       0.156900
      9 C10          4.0320     0.1280    -0.6070 ca         1 7BA       0.048100
     10 C14          2.7770     0.1630    -1.2480 ca         1 7BA       0.116100
     11 C2           1.7880    -0.7800    -0.9270 ca         1 7BA      -0.107000
     12 O3           2.5260     1.1200    -2.1880 oh         1 7BA      -0.531100
     13 C11          4.2890    -0.8700     0.3600 ca         1 7BA      -0.158000
     14 C12          3.2930    -1.8120     0.6780 ca         1 7BA      -0.107000
     15 C1           2.0350    -1.7650     0.0490 ca         1 7BA      -0.055800
     16 C1B          0.9960    -2.7710     0.3990 ce         1 7BA      -0.144200
     17 C16         -1.1890    -1.4020     0.5670 ca         1 7BA       0.011200
     18 C15         -2.5420    -1.4980     0.2140 ca         1 7BA      -0.215000
     19 O1          -4.7160    -0.4840    -0.1560 os         1 7BA      -0.324100
     20 O4          -3.5650     2.1070     0.5960 os         1 7BA      -0.328100
     21 O5          -0.9670     2.2340     1.2990 os         1 7BA      -0.324100
     22 H1           0.3640    -0.1030     1.2730 ha         1 7BA       0.123500
     23 H2          -6.3780    -1.5860    -0.7760 h1         1 7BA       0.041367
     24 H3          -4.8240    -2.1540    -1.4190 h1         1 7BA       0.041367
     25 H4          -5.2560    -2.4610     0.2860 h1         1 7BA       0.041367
     26 H5          -5.1290     1.9390    -0.7940 h1         1 7BA       0.032700
     27 H6          -5.5860     1.6400     0.9110 h1         1 7BA       0.032700
     28 H7          -5.2670     3.2890     0.3470 h1         1 7BA       0.032700
     29 H8           0.7160     1.8500     2.4910 h1         1 7BA       0.041367
     30 H9           1.0600     2.1480     0.7650 h1         1 7BA       0.041367
     31 H10          0.6120     3.4960     1.8330 h1         1 7BA       0.041367
     32 H11          6.8630     1.9580    -0.7760 h1         1 7BA       0.042033
     33 H12          6.2080     1.2780     0.7270 h1         1 7BA       0.042033
     34 H13          6.8310     0.1970    -0.5470 h1         1 7BA       0.042033
     35 H14          0.8290    -0.7450    -1.4350 ha         1 7BA       0.142000
     36 H15          3.3450     1.6610    -2.2580 ho         1 7BA       0.480000
     37 H16          5.2460    -0.9320     0.8710 ha         1 7BA       0.117000
     38 H17          3.4970    -2.5760     1.4260 ha         1 7BA       0.114000
     39 H18          1.3950    -3.7810     0.5080 ha         1 7BA       0.173000
     40 H19         -0.9160    -3.5290     0.7690 ha         1 7BA       0.175000
     41 H20         -2.9250    -2.4740    -0.0660 ha         1 7BA       0.123500
     42 C1A         -0.3520    -2.6180     0.5640 cf         1 7BA      -0.157200
     43 O2           4.9730     1.0820    -0.9580 os         1 7BA      -0.366100
@<TRIPOS>BOND
     1     1     2 ar  
     2     1     7 ar  
     3     1    20 1   
     4     2     3 ar  
     5     2    21 1   
     6     3    17 ar  
     7     3    22 1   
     8     4    19 1   
     9     4    23 1   
    10     4    24 1   
    11     4    25 1   
    12     5    20 1   
    13     5    26 1   
    14     5    27 1   
    15     5    28 1   
    16     6    21 1   
    17     6    29 1   
    18     6    30 1   
    19     6    31 1   
    20     7    18 ar  
    21     7    19 1   
    22     8    32 1   
    23     8    33 1   
    24     8    34 1   
    25     8    43 1   
    26     9    10 ar  
    27     9    13 ar  
    28     9    43 1   
    29    10    11 ar  
    30    10    12 1   
    31    11    15 ar  
    32    11    35 1   
    33    12    36 1   
    34    13    14 ar  
    35    13    37 1   
    36    14    15 ar  
    37    14    38 1   
    38    15    16 1   
    39    16    39 1   
    40    16    42 2   
    41    17    18 ar  
    42    17    42 1   
    43    18    41 1   
    44    40    42 1   
@<TRIPOS>SUBSTRUCTURE
     1 7BA         1 TEMP              0 ****  ****    0 ROOT
