@<TRIPOS>MOLECULE
7BB
   46    46     1     0     0
SMALL
bcc


@<TRIPOS>ATOM
      1 N           -1.2050    -2.0010     1.3900 nv         1 7BB      -0.840600
      2 O8          -0.0220     1.2770    -0.9780 o          1 7BB      -0.576000
      3 O9           1.0720    -0.4750    -0.0760 os         1 7BB      -0.450900
      4 CA          -1.0160    -1.9760     0.0410 c2         1 7BB       0.338600
      5 CB          -0.8910    -3.0480    -0.7610 c2         1 7BB      -0.191400
      6 SG          -0.7760    -4.6840    -0.1170 sh         1 7BB      -0.400400
      7 O10          7.2290     0.7960     1.2110 o          1 7BB      -0.845800
      8 O11          7.1050     1.6000    -0.8570 o          1 7BB      -0.845800
      9 O12         -7.2920     2.8820     1.2790 o          1 7BB      -0.852300
     10 N13         -1.0830    -0.6870    -0.5520 n          1 7BB      -0.439000
     11 O13         -7.0430     2.1470    -0.8080 o          1 7BB      -0.852300
     12 C48         -0.0000     0.1360    -0.5660 c          1 7BB       0.762100
     13 C49         -2.3870    -0.1800    -0.9680 c3         1 7BB       0.122000
     14 C50         -3.1400     0.5600     0.1300 c3         1 7BB      -0.109400
     15 C51         -4.5040     1.0480    -0.3440 c3         1 7BB      -0.050400
     16 C52          4.4830     0.2360     1.2740 c6         1 7BB      -0.052400
     17 C53          3.1330    -0.4530     1.0960 c6         1 7BB      -0.092900
     18 C54          2.3040     0.2580     0.0420 c6         1 7BB       0.173100
     19 C55          3.0460     0.3210    -1.2830 c6         1 7BB      -0.092900
     20 C56          4.3950     1.0130    -1.1030 c6         1 7BB      -0.052400
     21 C57          5.2530     0.3300    -0.0420 c6         1 7BB      -0.192700
     22 C58          6.6460     0.9770     0.1220 c          1 7BB       0.931600
     23 C59         -5.2650     1.7790     0.7490 c3         1 7BB      -0.203400
     24 C60         -6.6570     2.3120     0.3660 c          1 7BB       0.927600
     25 HN          -0.9260    -1.1820     1.9060 hn         1 7BB       0.417800
     26 H2          -0.9860    -2.8700     1.8550 hn         1 7BB       0.417800
     27 HB          -0.8130    -2.9070    -1.8290 h4         1 7BB       0.157000
     28 HSG         -2.0770    -5.0100    -0.0610 hs         1 7BB       0.184800
     29 H49         -2.2470     0.4690    -1.8340 h1         1 7BB       0.056200
     30 H49A        -2.9690    -1.0360    -1.3120 h1         1 7BB       0.056200
     31 H50         -3.2630    -0.1030     0.9910 hc         1 7BB       0.039700
     32 H50A        -2.5420     1.4100     0.4710 hc         1 7BB       0.039700
     33 H51         -4.3750     1.7070    -1.2070 hc         1 7BB       0.038700
     34 H51A        -5.0900     0.1960    -0.6990 hc         1 7BB       0.038700
     35 H52          4.3260     1.2440     1.6760 hc         1 7BB       0.044700
     36 H52A         5.0700    -0.3020     2.0170 hc         1 7BB       0.044700
     37 H53          3.2900    -1.4930     0.7910 hc         1 7BB       0.035450
     38 H53A         2.5890    -0.4760     2.0450 hc         1 7BB       0.035450
     39 H54          2.0830     1.2750     0.3840 h1         1 7BB       0.058700
     40 H55          3.1990    -0.6990    -1.6550 hc         1 7BB       0.035450
     41 H55A         2.4510     0.8510    -2.0290 hc         1 7BB       0.035450
     42 H56          4.9210     1.0390    -2.0570 hc         1 7BB       0.044700
     43 H56A         4.2280     2.0580    -0.8180 hc         1 7BB       0.044700
     44 H57          5.4360    -0.7010    -0.3840 hc         1 7BB       0.025700
     45 H59         -5.3760     1.1240     1.6210 hc         1 7BB       0.016700
     46 H59A        -4.6670     2.6250     1.1090 hc         1 7BB       0.016700
@<TRIPOS>BOND
     1     1     4 1   
     2     1    25 1   
     3     1    26 1   
     4     2    12 2   
     5     3    12 1   
     6     3    18 1   
     7     4     5 2   
     8     4    10 1   
     9     5     6 1   
    10     5    27 1   
    11     6    28 1   
    12     7    22 1   
    13     8    22 1   
    14     9    24 1   
    15    10    12 1   
    16    10    13 1   
    17    11    24 1   
    18    13    14 1   
    19    13    29 1   
    20    13    30 1   
    21    14    15 1   
    22    14    31 1   
    23    14    32 1   
    24    15    23 1   
    25    15    33 1   
    26    15    34 1   
    27    16    17 1   
    28    16    21 1   
    29    16    35 1   
    30    16    36 1   
    31    17    18 1   
    32    17    37 1   
    33    17    38 1   
    34    18    19 1   
    35    18    39 1   
    36    19    20 1   
    37    19    40 1   
    38    19    41 1   
    39    20    21 1   
    40    20    42 1   
    41    20    43 1   
    42    21    22 1   
    43    21    44 1   
    44    23    24 1   
    45    23    45 1   
    46    23    46 1   
@<TRIPOS>SUBSTRUCTURE
     1 7BB         1 TEMP              0 ****  ****    0 ROOT
