@<TRIPOS>MOLECULE
7BC
   17    16     1     0     0
SMALL
No Charge or Current Charge


@<TRIPOS>ATOM
      1 O3          -2.0310    -1.3910     0.5250 o          1 7BC      -0.509000
      2 C3          -1.9940    -0.2270     0.1500 c          1 7BC       0.585300
      3 C4          -3.1990     0.6180    -0.0920 ce         1 7BC      -0.253200
      4 C5          -4.4790     0.2010     0.0750 c2         1 7BC      -0.274000
      5 O2          -0.8450     0.4720    -0.1040 os         1 7BC      -0.456100
      6 C2           0.4090    -0.2060     0.0820 c3         1 7BC       0.185600
      7 C1           1.5250     0.7910    -0.2670 c3         1 7BC      -0.222400
      8 C            2.8680     0.0890    -0.0750 c          1 7BC       0.723000
      9 O1           3.3860     0.1310     1.0300 o          1 7BC      -0.733500
     10 O            3.3340    -0.5280    -1.0200 o          1 7BC      -0.733500
     11 H1          -2.9870     1.6340    -0.4240 ha         1 7BC       0.190000
     12 H3          -5.3260     0.8620    -0.1160 ha         1 7BC       0.165500
     13 H4          -4.7170    -0.8110     0.4070 ha         1 7BC       0.165500
     14 H6           0.5220    -0.5390     1.1230 h1         1 7BC       0.052700
     15 H7           0.4790    -1.0850    -0.5740 h1         1 7BC       0.052700
     16 H8           1.3730     1.0630    -1.3180 hc         1 7BC       0.030700
     17 H9           1.4180     1.6270     0.4350 hc         1 7BC       0.030700
@<TRIPOS>BOND
     1     1     2 2   
     2     2     3 1   
     3     2     5 1   
     4     3     4 2   
     5     3    11 1   
     6     4    12 1   
     7     4    13 1   
     8     5     6 1   
     9     6     7 1   
    10     6    14 1   
    11     6    15 1   
    12     7     8 1   
    13     7    16 1   
    14     7    17 1   
    15     8     9 1   
    16     8    10 1   
@<TRIPOS>SUBSTRUCTURE
     1 7BC         1 TEMP              0 ****  ****    0 ROOT
