@<TRIPOS>MOLECULE
7BC
   17    16     1     0     0
SMALL
abcg2


@<TRIPOS>ATOM
      1 O3          -2.0560    -1.4380     0.0060 o          1 7BC      -0.509000
      2 C3          -2.0040    -0.2300    -0.0050 c          1 7BC       0.585300
      3 C4          -3.1830     0.6660    -0.0100 ce         1 7BC      -0.253200
      4 C5          -4.4180     0.1800     0.0080 c2         1 7BC      -0.274000
      5 O2          -0.8770     0.4630    -0.0150 os         1 7BC      -0.456100
      6 C2           0.3670    -0.2630    -0.0110 c3         1 7BC       0.185600
      7 C1           1.4870     0.7510    -0.0190 c3         1 7BC      -0.222400
      8 C            2.8890     0.1110    -0.0190 c          1 7BC       0.723000
      9 O1           3.8500     0.9050    -0.0180 o          1 7BC      -0.733500
     10 O            2.9490    -1.1340    -0.0220 o          1 7BC      -0.733500
     11 H1          -3.0030     1.7340    -0.0290 ha         1 7BC       0.190000
     12 H3          -5.2770     0.8370     0.0030 ha         1 7BC       0.165500
     13 H4          -4.6150    -0.8840     0.0260 ha         1 7BC       0.165500
     14 H6           0.4120    -0.8980     0.8750 h1         1 7BC       0.052700
     15 H7           0.4120    -0.9090    -0.8890 h1         1 7BC       0.052700
     16 H8           1.4000     1.3990    -0.8970 hc         1 7BC       0.030700
     17 H9           1.4030     1.4100     0.8510 hc         1 7BC       0.030700
@<TRIPOS>BOND
     1     1     2 2   
     2     2     3 1   
     3     2     5 1   
     4     3     4 2   
     5     3    11 1   
     6     4    12 1   
     7     4    13 1   
     8     5     6 1   
     9     6     7 1   
    10     6    14 1   
    11     6    15 1   
    12     7     8 1   
    13     7    16 1   
    14     7    17 1   
    15     8     9 1   
    16     8    10 1   
@<TRIPOS>SUBSTRUCTURE
     1 7BC         1 TEMP              0 ****  ****    0 ROOT
