@<TRIPOS>MOLECULE
7BD
   32    34     1     0     0
SMALL
No Charge or Current Charge


@<TRIPOS>ATOM
      1 C1          -1.9060    -1.1380    -0.0370 ca         1 7BD      -0.119900
      2 C2          -0.6650    -0.3620    -0.0110 cc         1 7BD       0.410500
      3 C3          -1.1120     1.0470     0.0290 ca         1 7BD      -0.119900
      4 C4          -2.5150     1.0960     0.0260 cp         1 7BD      -0.040000
      5 C5          -3.0160    -0.2890    -0.0160 cp         1 7BD      -0.040000
      6 C6          -3.2120     2.3180     0.0590 ca         1 7BD      -0.097000
      7 C10         -4.3270    -0.8020    -0.0360 ca         1 7BD      -0.097000
      8 C11         -2.0640    -2.5330    -0.0790 ca         1 7BD      -0.064500
      9 C12         -3.3740    -3.0590    -0.0990 ca         1 7BD      -0.119000
     10 C13         -4.4980    -2.2010    -0.0770 ca         1 7BD      -0.118500
     11 C16          2.8630    -0.7240    -0.0090 c3         1 7BD       0.176600
     12 C17          4.0060     0.3020     0.0250 c3         1 7BD      -0.223400
     13 C18          5.3310    -0.4580     0.0070 c          1 7BD       0.724000
     14 C7          -0.3660     2.2440     0.0670 ca         1 7BD      -0.064500
     15 C8          -1.0570     3.4740     0.1000 ca         1 7BD      -0.119000
     16 C9          -2.4690     3.5130     0.0970 ca         1 7BD      -0.118500
     17 N14          0.5340    -0.8820    -0.0220 n2         1 7BD      -0.258700
     18 O15          1.6250     0.0070     0.0080 os         1 7BD      -0.317000
     19 O19          5.8200    -0.7360    -1.0770 o          1 7BD      -0.733000
     20 O20          5.8130    -0.7990     1.0760 o          1 7BD      -0.733000
     21 H6          -4.2990     2.3380     0.0560 ha         1 7BD       0.107000
     22 H10         -5.1860    -0.1360    -0.0190 ha         1 7BD       0.107000
     23 H11         -1.2000    -3.1950    -0.0950 ha         1 7BD       0.140000
     24 H12         -3.5200    -4.1370    -0.1310 ha         1 7BD       0.108000
     25 H13         -5.5010    -2.6220    -0.0930 ha         1 7BD       0.102000
     26 H16          2.9420    -1.3360    -0.9180 h1         1 7BD       0.047700
     27 H16A         2.9360    -1.3880     0.8630 h1         1 7BD       0.047700
     28 H17          3.8950     0.9130    -0.8790 hc         1 7BD       0.030700
     29 H17A         3.8880     0.8600     0.9620 hc         1 7BD       0.030700
     30 H7           0.7200     2.2430     0.0700 ha         1 7BD       0.140000
     31 H8          -0.4940     4.4040     0.1290 ha         1 7BD       0.108000
     32 H9          -2.9850     4.4710     0.1230 ha         1 7BD       0.102000
@<TRIPOS>BOND
     1     1     2 1   
     2     1     5 ar  
     3     1     8 ar  
     4     2     3 1   
     5     2    17 2   
     6     3     4 ar  
     7     3    14 ar  
     8     4     5 1   
     9     4     6 ar  
    10     5     7 ar  
    11     6    16 ar  
    12     6    21 1   
    13     7    10 ar  
    14     7    22 1   
    15     8     9 ar  
    16     8    23 1   
    17     9    10 ar  
    18     9    24 1   
    19    10    25 1   
    20    11    12 1   
    21    11    18 1   
    22    11    26 1   
    23    11    27 1   
    24    12    13 1   
    25    12    28 1   
    26    12    29 1   
    27    13    19 1   
    28    13    20 1   
    29    14    15 ar  
    30    14    30 1   
    31    15    16 ar  
    32    15    31 1   
    33    16    32 1   
    34    17    18 1   
@<TRIPOS>SUBSTRUCTURE
     1 7BD         1 TEMP              0 ****  ****    0 ROOT
