@<TRIPOS>MOLECULE
7BD
   32    34     1     0     0
SMALL
abcg2


@<TRIPOS>ATOM
      1 C1          -1.8840    -1.1730     0.0170 ca         1 7BD      -0.119900
      2 C2          -0.6450    -0.3800     0.0100 cc         1 7BD       0.410500
      3 C3          -1.0490     1.0370     0.0020 ca         1 7BD      -0.119900
      4 C4          -2.4560     1.0770     0.0030 cp         1 7BD      -0.040000
      5 C5          -2.9720    -0.2930     0.0120 cp         1 7BD      -0.040000
      6 C6          -3.1320     2.2840    -0.0040 ca         1 7BD      -0.097000
      7 C10         -4.2700    -0.7760     0.0160 ca         1 7BD      -0.097000
      8 C11         -2.0760    -2.5440     0.0280 ca         1 7BD      -0.064500
      9 C12         -3.3810    -3.0270     0.0320 ca         1 7BD      -0.119000
     10 C13         -4.4650    -2.1540     0.0270 ca         1 7BD      -0.118500
     11 C16          2.7810    -0.7860    -0.0010 c3         1 7BD       0.176600
     12 C17          3.8760     0.2560    -0.0030 c3         1 7BD      -0.223400
     13 C18          5.2950    -0.3430    -0.0240 c          1 7BD       0.724000
     14 C7          -0.3170     2.2160    -0.0070 ca         1 7BD      -0.064500
     15 C8          -1.0030     3.4280    -0.0140 ca         1 7BD      -0.119000
     16 C9          -2.3920     3.4630    -0.0130 ca         1 7BD      -0.118500
     17 N14          0.4970    -0.9480     0.0120 n2         1 7BD      -0.258700
     18 O15          1.5300    -0.0900     0.0060 os         1 7BD      -0.317000
     19 O19          6.2320     0.4790    -0.0390 o          1 7BD      -0.733000
     20 O20          5.3910    -1.5860    -0.0250 o          1 7BD      -0.733000
     21 H6          -4.2140     2.3200    -0.0030 ha         1 7BD       0.107000
     22 H10         -5.1180    -0.1030     0.0120 ha         1 7BD       0.107000
     23 H11         -1.2360    -3.2260     0.0320 ha         1 7BD       0.140000
     24 H12         -3.5540    -4.0960     0.0410 ha         1 7BD       0.108000
     25 H13         -5.4720    -2.5510     0.0300 ha         1 7BD       0.102000
     26 H16          2.8390    -1.4220    -0.8880 h1         1 7BD       0.047700
     27 H16A         2.8460    -1.4280     0.8800 h1         1 7BD       0.047700
     28 H17          3.7620     0.9170    -0.8680 hc         1 7BD       0.030700
     29 H17A         3.7810     0.8990     0.8790 hc         1 7BD       0.030700
     30 H7           0.7630     2.2140    -0.0080 ha         1 7BD       0.140000
     31 H8          -0.4430     4.3540    -0.0210 ha         1 7BD       0.108000
     32 H9          -2.9050     4.4160    -0.0180 ha         1 7BD       0.102000
@<TRIPOS>BOND
     1     1     2 1   
     2     1     5 ar  
     3     1     8 ar  
     4     2     3 1   
     5     2    17 2   
     6     3     4 ar  
     7     3    14 ar  
     8     4     5 1   
     9     4     6 ar  
    10     5     7 ar  
    11     6    16 ar  
    12     6    21 1   
    13     7    10 ar  
    14     7    22 1   
    15     8     9 ar  
    16     8    23 1   
    17     9    10 ar  
    18     9    24 1   
    19    10    25 1   
    20    11    12 1   
    21    11    18 1   
    22    11    26 1   
    23    11    27 1   
    24    12    13 1   
    25    12    28 1   
    26    12    29 1   
    27    13    19 1   
    28    13    20 1   
    29    14    15 ar  
    30    14    30 1   
    31    15    16 ar  
    32    15    31 1   
    33    16    32 1   
    34    17    18 1   
@<TRIPOS>SUBSTRUCTURE
     1 7BD         1 TEMP              0 ****  ****    0 ROOT
