@<TRIPOS>MOLECULE
7BE
   59    63     1     0     0
SMALL
abcg2


@<TRIPOS>ATOM
      1 C10         -1.5090     0.1640     1.0220 ca         1 7BE      -0.135000
      2 C11         -0.9620    -1.0220     0.5640 ca         1 7BE       0.158100
      3 C13          0.9690    -2.3950     0.4580 c6         1 7BE       0.403000
      4 C14          2.0740    -2.8190     1.4080 c6         1 7BE      -0.085400
      5 C15          2.9100    -1.6170     1.8240 c6         1 7BE      -0.010100
      6 C16          3.2090    -0.7330     0.6460 ca         1 7BE      -0.174300
      7 C17          4.2000     0.2430     0.7010 ca         1 7BE      -0.057000
      8 C18          4.4900     1.0750    -0.3740 ca         1 7BE      -0.152600
      9 C19          5.5760     2.1330    -0.2770 c          1 7BE       0.714600
     10 C22          3.7540     0.9070    -1.5460 ca         1 7BE      -0.061000
     11 C23          2.7600    -0.0510    -1.6310 ca         1 7BE      -0.164000
     12 C24          2.4870    -0.8680    -0.5380 ca         1 7BE       0.100100
     13 C26          0.0880    -3.5380    -0.0140 c6         1 7BE      -0.089400
     14 C27         -0.9990    -3.0270    -0.9510 c6         1 7BE      -0.013100
     15 C28         -1.6070    -1.7590    -0.4230 ca         1 7BE      -0.144300
     16 C29         -2.8140    -1.2680    -0.8980 ca         1 7BE      -0.082000
     17 C30         -3.4000    -0.0860    -0.4450 ca         1 7BE      -0.098300
     18 C02         -4.7260     0.3560    -1.0540 c6         1 7BE       0.009300
     19 C03         -5.7280    -0.8030    -1.1080 c3         1 7BE      -0.080100
     20 C04         -5.3530     1.4700    -0.2100 c6         1 7BE      -0.065400
     21 C05         -4.3460     2.5310     0.1820 c6         1 7BE      -0.066400
     22 C06         -3.2400     1.9770     1.0850 c6         1 7BE       0.001300
     23 C07         -2.1280     3.0310     1.1550 c3         1 7BE      -0.081600
     24 C08         -3.7800     1.7390     2.5020 c3         1 7BE      -0.081600
     25 C09         -2.7150     0.6580     0.5270 ca         1 7BE      -0.032300
     26 O12          0.2050    -1.4250     1.1390 os         1 7BE      -0.358100
     27 O20          5.7780     2.8210    -1.2980 o          1 7BE      -0.723500
     28 O21          6.1750     2.2290     0.8120 o          1 7BE      -0.723500
     29 O25          1.5110    -1.8010    -0.7020 os         1 7BE      -0.373100
     30 H1          -0.9640     0.7130     1.7810 ha         1 7BE       0.130000
     31 H2           1.6440    -3.3190     2.2770 hc         1 7BE       0.049700
     32 H3           2.6950    -3.5540     0.8920 hc         1 7BE       0.049700
     33 H4           2.3890    -1.0400     2.5930 hc         1 7BE       0.048200
     34 H5           3.8420    -1.9560     2.2800 hc         1 7BE       0.048200
     35 H6           4.7680     0.3490     1.6180 ha         1 7BE       0.125000
     36 H7           3.9600     1.5380    -2.4000 ha         1 7BE       0.130000
     37 H8           2.1880    -0.1750    -2.5430 ha         1 7BE       0.101000
     38 H9           0.7000    -4.2970    -0.5030 hc         1 7BE       0.053700
     39 H10         -0.3570    -4.0040     0.8680 hc         1 7BE       0.053700
     40 H11         -0.5830    -2.8490    -1.9470 hc         1 7BE       0.051200
     41 H12         -1.7680    -3.7910    -1.0750 hc         1 7BE       0.051200
     42 H13         -3.3180    -1.8530    -1.6610 ha         1 7BE       0.100000
     43 H14         -5.4140     1.1730    -2.9490 hc         1 7BE       0.031533
     44 H15         -3.7900     1.7020    -2.5070 hc         1 7BE       0.031533
     45 H16         -4.0490     0.0690    -3.1070 hc         1 7BE       0.031533
     46 H17         -5.4130    -1.6050    -1.7770 hc         1 7BE       0.031533
     47 H18         -5.8890    -1.2330    -0.1180 hc         1 7BE       0.031533
     48 H19         -6.6920    -0.4400    -1.4740 hc         1 7BE       0.031533
     49 H20         -6.1840     1.9120    -0.7680 hc         1 7BE       0.035200
     50 H21         -5.7960     1.0310     0.6910 hc         1 7BE       0.035200
     51 H22         -3.8920     2.9610    -0.7170 hc         1 7BE       0.040200
     52 H23         -4.8420     3.3590     0.6960 hc         1 7BE       0.040200
     53 H24         -2.5540     3.9970     1.4330 hc         1 7BE       0.035367
     54 H25         -1.3650     2.7930     1.8970 hc         1 7BE       0.035367
     55 H26         -1.6350     3.1490     0.1880 hc         1 7BE       0.035367
     56 H27         -4.6040     1.0260     2.5140 hc         1 7BE       0.035367
     57 H28         -3.0000     1.3490     3.1580 hc         1 7BE       0.035367
     58 H29         -4.1410     2.6750     2.9370 hc         1 7BE       0.035367
     59 C01         -4.4780     0.8560    -2.4840 c3         1 7BE      -0.080100
@<TRIPOS>BOND
     1     1     2 ar  
     2     1    25 ar  
     3     1    30 1   
     4     2    15 ar  
     5     2    26 1   
     6     3     4 1   
     7     3    13 1   
     8     3    26 1   
     9     3    29 1   
    10     4     5 1   
    11     4    31 1   
    12     4    32 1   
    13     5     6 1   
    14     5    33 1   
    15     5    34 1   
    16     6     7 ar  
    17     6    12 ar  
    18     7     8 ar  
    19     7    35 1   
    20     8     9 1   
    21     8    10 ar  
    22     9    27 1   
    23     9    28 1   
    24    10    11 ar  
    25    10    36 1   
    26    11    12 ar  
    27    11    37 1   
    28    12    29 1   
    29    13    14 1   
    30    13    38 1   
    31    13    39 1   
    32    14    15 1   
    33    14    40 1   
    34    14    41 1   
    35    15    16 ar  
    36    16    17 ar  
    37    16    42 1   
    38    17    18 1   
    39    17    25 ar  
    40    18    19 1   
    41    18    20 1   
    42    18    59 1   
    43    19    46 1   
    44    19    47 1   
    45    19    48 1   
    46    20    21 1   
    47    20    49 1   
    48    20    50 1   
    49    21    22 1   
    50    21    51 1   
    51    21    52 1   
    52    22    23 1   
    53    22    24 1   
    54    22    25 1   
    55    23    53 1   
    56    23    54 1   
    57    23    55 1   
    58    24    56 1   
    59    24    57 1   
    60    24    58 1   
    61    43    59 1   
    62    44    59 1   
    63    45    59 1   
@<TRIPOS>SUBSTRUCTURE
     1 7BE         1 TEMP              0 ****  ****    0 ROOT
