@<TRIPOS>MOLECULE
7BE
   59    63     1     0     0
SMALL
No Charge or Current Charge


@<TRIPOS>ATOM
      1 C10         -1.5890     0.2490     1.0360 ca         1 7BE      -0.135000
      2 C11         -0.9930    -0.9240     0.5610 ca         1 7BE       0.158100
      3 C13          1.0200    -2.3060     0.4260 c6         1 7BE       0.403000
      4 C14          2.1270    -2.8060     1.3850 c6         1 7BE      -0.085400
      5 C15          3.0490    -1.6430     1.8090 c6         1 7BE      -0.010100
      6 C16          3.4210    -0.7580     0.6200 ca         1 7BE      -0.174300
      7 C17          4.5010     0.1400     0.7260 ca         1 7BE      -0.057000
      8 C18          4.8730     0.9620    -0.3640 ca         1 7BE      -0.152600
      9 C19          6.0410     1.9270    -0.2450 c          1 7BE       0.714600
     10 C22          4.1380     0.8640    -1.5680 ca         1 7BE      -0.061000
     11 C23          3.0580    -0.0280    -1.6750 ca         1 7BE      -0.164000
     12 C24          2.6890    -0.8300    -0.5860 ca         1 7BE       0.100100
     13 C26          0.1150    -3.4800    -0.0230 c6         1 7BE      -0.089400
     14 C27         -1.0100    -2.9780    -0.9530 c6         1 7BE      -0.013100
     15 C28         -1.6400    -1.6900    -0.4270 ca         1 7BE      -0.144300
     16 C29         -2.8800    -1.2610    -0.9270 ca         1 7BE      -0.082000
     17 C30         -3.5030    -0.0830    -0.4490 ca         1 7BE      -0.098300
     18 C02         -4.8820     0.3280    -1.0350 c6         1 7BE       0.009300
     19 C03         -5.8620    -0.8890    -1.1030 c3         1 7BE      -0.080100
     20 C04         -5.5690     1.4320    -0.1820 c6         1 7BE      -0.065400
     21 C05         -4.5900     2.5540     0.1980 c6         1 7BE      -0.066400
     22 C06         -3.4240     2.0300     1.0830 c6         1 7BE       0.001300
     23 C07         -2.3450     3.1590     1.1550 c3         1 7BE      -0.081600
     24 C08         -3.9160     1.7770     2.5440 c3         1 7BE      -0.081600
     25 C09         -2.8270     0.7070     0.5290 ca         1 7BE      -0.032300
     26 O12          0.2150    -1.3130     1.1000 os         1 7BE      -0.358100
     27 O20          6.3300     2.6180    -1.2120 o          1 7BE      -0.723500
     28 O21          6.6530     1.9800     0.8130 o          1 7BE      -0.723500
     29 O25          1.6290    -1.6990    -0.7370 os         1 7BE      -0.373100
     30 H1          -1.0690     0.8020     1.8110 ha         1 7BE       0.130000
     31 H2           1.6850    -3.2790     2.2720 hc         1 7BE       0.049700
     32 H3           2.7230    -3.5790     0.8810 hc         1 7BE       0.049700
     33 H4           2.5440    -1.0310     2.5690 hc         1 7BE       0.048200
     34 H5           3.9540    -2.0450     2.2860 hc         1 7BE       0.048200
     35 H6           5.0540     0.1930     1.6620 ha         1 7BE       0.125000
     36 H7           4.4010     1.4790    -2.4260 ha         1 7BE       0.130000
     37 H8           2.5000    -0.0940    -2.6060 ha         1 7BE       0.101000
     38 H9           0.7080    -4.2520    -0.5310 hc         1 7BE       0.053700
     39 H10         -0.3280    -3.9560     0.8620 hc         1 7BE       0.053700
     40 H11         -0.6050    -2.7950    -1.9580 hc         1 7BE       0.051200
     41 H12         -1.7730    -3.7610    -1.0650 hc         1 7BE       0.051200
     42 H13         -3.3550    -1.8580    -1.6990 ha         1 7BE       0.100000
     43 H14         -5.6050     1.1720    -2.9490 hc         1 7BE       0.031533
     44 H15         -3.9490     1.6490    -2.5480 hc         1 7BE       0.031533
     45 H16         -4.2770     0.0240    -3.1420 hc         1 7BE       0.031533
     46 H17         -5.5430    -1.6510    -1.8220 hc         1 7BE       0.031533
     47 H18         -5.9550    -1.3740    -0.1240 hc         1 7BE       0.031533
     48 H19         -6.8670    -0.5720    -1.4090 hc         1 7BE       0.031533
     49 H20         -6.4200     1.8580    -0.7300 hc         1 7BE       0.035200
     50 H21         -5.9950     0.9930     0.7300 hc         1 7BE       0.035200
     51 H22         -4.1920     3.0190    -0.7140 hc         1 7BE       0.040200
     52 H23         -5.1330     3.3530     0.7220 hc         1 7BE       0.040200
     53 H24         -2.7930     4.1190     1.4380 hc         1 7BE       0.035367
     54 H25         -1.5600     2.9520     1.8900 hc         1 7BE       0.035367
     55 H26         -1.8570     3.3010     0.1820 hc         1 7BE       0.035367
     56 H27         -4.6430     0.9580     2.5910 hc         1 7BE       0.035367
     57 H28         -3.0850     1.5030     3.2060 hc         1 7BE       0.035367
     58 H29         -4.3920     2.6690     2.9690 hc         1 7BE       0.035367
     59 C01         -4.6670     0.8230    -2.5000 c3         1 7BE      -0.080100
@<TRIPOS>BOND
     1     1     2 ar  
     2     1    25 ar  
     3     1    30 1   
     4     2    15 ar  
     5     2    26 1   
     6     3     4 1   
     7     3    13 1   
     8     3    26 1   
     9     3    29 1   
    10     4     5 1   
    11     4    31 1   
    12     4    32 1   
    13     5     6 1   
    14     5    33 1   
    15     5    34 1   
    16     6     7 ar  
    17     6    12 ar  
    18     7     8 ar  
    19     7    35 1   
    20     8     9 1   
    21     8    10 ar  
    22     9    27 1   
    23     9    28 1   
    24    10    11 ar  
    25    10    36 1   
    26    11    12 ar  
    27    11    37 1   
    28    12    29 1   
    29    13    14 1   
    30    13    38 1   
    31    13    39 1   
    32    14    15 1   
    33    14    40 1   
    34    14    41 1   
    35    15    16 ar  
    36    16    17 ar  
    37    16    42 1   
    38    17    18 1   
    39    17    25 ar  
    40    18    19 1   
    41    18    20 1   
    42    18    59 1   
    43    19    46 1   
    44    19    47 1   
    45    19    48 1   
    46    20    21 1   
    47    20    49 1   
    48    20    50 1   
    49    21    22 1   
    50    21    51 1   
    51    21    52 1   
    52    22    23 1   
    53    22    24 1   
    54    22    25 1   
    55    23    53 1   
    56    23    54 1   
    57    23    55 1   
    58    24    56 1   
    59    24    57 1   
    60    24    58 1   
    61    43    59 1   
    62    44    59 1   
    63    45    59 1   
@<TRIPOS>SUBSTRUCTURE
     1 7BE         1 TEMP              0 ****  ****    0 ROOT
