@<TRIPOS>MOLECULE
7BF
   44    48     1     0     0
SMALL
bcc


@<TRIPOS>ATOM
      1 C1          -2.0560    -0.1870     1.0110 ca         1 7BF       0.147100
      2 C2          -2.7160     0.1390     2.1690 ca         1 7BF      -0.211000
      3 C3          -3.8350     0.9990     2.1340 ca         1 7BF      -0.094000
      4 O4          -1.0050    -1.0170     0.9320 os         1 7BF      -0.317900
      5 C7          -3.6060     1.2220    -0.2420 ca         1 7BF      -0.135300
      6 C8          -4.0030     1.7560    -1.4910 ca         1 7BF       0.417200
      7 C10         -2.3010     0.7210    -2.5910 ca         1 7BF       0.378200
      8 C11         -1.8180     0.1340    -1.4540 ca         1 7BF      -0.204300
      9 C12          0.9790    -2.0790     1.6360 c5         1 7BF       0.236500
     10 C13          0.6410    -3.5110     1.2110 c5         1 7BF      -0.090400
     11 C14          1.6190    -3.8010     0.0850 c5         1 7BF      -0.098400
     12 C15          1.6760    -2.4780    -0.6590 c5         1 7BF       0.240800
     13 C20          2.8590     1.7810     1.4400 cc         1 7BF       0.494200
     14 C21          2.3810     0.4820     1.5680 cc         1 7BF      -0.435300
     15 C22          2.7030     1.7310    -0.7840 cd         1 7BF       0.444500
     16 N23          2.2300     0.4320    -0.7390 na         1 7BF      -0.010800
     17 N26          2.7200     2.1250    -2.0470 nc         1 7BF      -0.394300
     18 C5          -4.2850     1.5290     0.9590 ca         1 7BF      -0.131000
     19 C6          -2.4790     0.3700    -0.2290 ca         1 7BF      -0.030000
     20 N9          -3.3890     1.5210    -2.6190 nb         1 7BF      -0.654000
     21 N16          1.5920    -1.5030     0.4340 nh         1 7BF      -0.675000
     22 C17         -0.2410    -1.2890     2.0890 c3         1 7BF       0.123400
     23 C18          2.0530    -0.2530     0.4290 cd         1 7BF       0.346300
     24 N19          3.0340     2.4230     0.3010 nd         1 7BF      -0.673000
     25 N24          1.9250     0.0160    -1.9830 nd         1 7BF      -0.630100
     26 C25          2.2440     1.0620    -2.7100 cc         1 7BF       0.550200
     27 H1          -2.4010    -0.2660     3.1220 ha         1 7BF       0.133000
     28 H2          -4.3390     1.2280     3.0640 ha         1 7BF       0.133000
     29 H3          -4.8730     2.4060    -1.5260 h4         1 7BF       0.019100
     30 H4          -1.8060     0.5580    -3.5410 h4         1 7BF       0.021100
     31 H5          -0.9350    -0.4860    -1.5050 ha         1 7BF       0.158000
     32 H6           1.6980    -2.1020     2.4630 h1         1 7BF       0.066700
     33 H7           0.7250    -4.1980     2.0500 hc         1 7BF       0.064700
     34 H8          -0.3850    -3.5650     0.8380 hc         1 7BF       0.064700
     35 H9           2.6050    -4.0520     0.4820 hc         1 7BF       0.060700
     36 H10          1.2970    -4.6170    -0.5620 hc         1 7BF       0.060700
     37 H11          2.5940    -2.3520    -1.2270 h1         1 7BF       0.070700
     38 H12          0.8340    -2.3730    -1.3440 h1         1 7BF       0.070700
     39 H14          2.3080     0.0390     2.5490 ha         1 7BF       0.150000
     40 H15         -5.1460     2.1840     0.9350 ha         1 7BF       0.139000
     41 H16          0.0360    -0.3510     2.5810 h1         1 7BF       0.049200
     42 H17         -0.7960    -1.8930     2.8150 h1         1 7BF       0.049200
     43 H18          2.1170     1.0460    -3.7830 h5         1 7BF       0.069800
     44 H13          3.1240     2.3210     2.3420 h4         1 7BF       0.026100
@<TRIPOS>BOND
     1     1     2 ar  
     2     1     4 1   
     3     1    19 ar  
     4     2     3 ar  
     5     2    27 1   
     6     3    18 ar  
     7     3    28 1   
     8     4    22 1   
     9     5     6 ar  
    10     5    18 ar  
    11     5    19 ar  
    12     6    20 ar  
    13     6    29 1   
    14     7     8 ar  
    15     7    20 ar  
    16     7    30 1   
    17     8    19 ar  
    18     8    31 1   
    19     9    10 1   
    20     9    21 1   
    21     9    22 1   
    22     9    32 1   
    23    10    11 1   
    24    10    33 1   
    25    10    34 1   
    26    11    12 1   
    27    11    35 1   
    28    11    36 1   
    29    12    21 1   
    30    12    37 1   
    31    12    38 1   
    32    13    14 1   
    33    13    24 2   
    34    13    44 1   
    35    14    23 2   
    36    14    39 1   
    37    15    16 1   
    38    15    17 2   
    39    15    24 1   
    40    16    23 1   
    41    16    25 1   
    42    17    26 1   
    43    18    40 1   
    44    21    23 1   
    45    22    41 1   
    46    22    42 1   
    47    25    26 2   
    48    26    43 1   
@<TRIPOS>SUBSTRUCTURE
     1 7BF         1 TEMP              0 ****  ****    0 ROOT
