@<TRIPOS>MOLECULE
7BF
   44    48     1     0     0
SMALL
No Charge or Current Charge


@<TRIPOS>ATOM
      1 C1          -2.0660    -0.1190     0.9650 ca         1 7BF       0.147100
      2 C2          -2.6960     0.2220     2.1820 ca         1 7BF      -0.193000
      3 C3          -3.7620     1.1400     2.1940 ca         1 7BF      -0.076000
      4 O4          -1.0180    -1.0130     0.9130 os         1 7BF      -0.341100
      5 C7          -3.5790     1.3930    -0.2220 ca         1 7BF      -0.070000
      6 C8          -4.0000     1.9720    -1.4380 ca         1 7BF       0.351900
      7 C10         -2.3970     0.8070    -2.6410 ca         1 7BF       0.312900
      8 C11         -1.9130     0.1810    -1.4810 ca         1 7BF      -0.121000
      9 C12          0.9670    -2.2430     1.6420 c5         1 7BF       0.236500
     10 C13          0.6190    -3.6470     1.0670 c5         1 7BF      -0.090400
     11 C14          1.8940    -3.9770     0.2490 c5         1 7BF      -0.098400
     12 C15          2.0750    -2.6590    -0.5430 c5         1 7BF       0.240800
     13 C20          2.6450     1.8970     1.3770 cc         1 7BF       0.428900
     14 C21          2.3410     0.5020     1.5090 cc         1 7BF      -0.352000
     15 C22          2.4150     1.7460    -0.8120 cd         1 7BF       0.444500
     16 N23          2.1390     0.4040    -0.8110 na         1 7BF       0.039900
     17 N26          2.3740     2.1850    -2.0420 nc         1 7BF      -0.394300
     18 C5          -4.2040     1.7250     0.9950 ca         1 7BF      -0.113000
     19 C6          -2.5120     0.4720    -0.2380 ca         1 7BF      -0.030000
     20 N9          -3.4240     1.6890    -2.6320 nb         1 7BF      -0.654000
     21 N16          1.7510    -1.6590     0.5070 nh         1 7BF      -0.813400
     22 C17         -0.2840    -1.4200     2.0860 c3         1 7BF       0.146600
     23 C18          2.0700    -0.2900     0.4130 cd         1 7BF       0.434000
     24 N19          2.6950     2.5900     0.2420 nd         1 7BF      -0.673000
     25 N24          1.8700    -0.0840    -2.0700 nd         1 7BF      -0.630100
     26 C25          2.0460     1.0510    -2.7480 cc         1 7BF       0.550200
     27 H1          -2.3780    -0.2190     3.1220 ha         1 7BF       0.115000
     28 H2          -4.2460     1.3980     3.1330 ha         1 7BF       0.115000
     29 H3          -4.8220     2.6860    -1.4590 h4         1 7BF       0.019100
     30 H4          -1.9480     0.5970    -3.6110 h4         1 7BF       0.021100
     31 H5          -1.0820    -0.5150    -1.5590 ha         1 7BF       0.140000
     32 H6           1.6160    -2.3580     2.5220 h1         1 7BF       0.066700
     33 H7           0.4200    -4.3810     1.8570 hc         1 7BF       0.064700
     34 H8          -0.2680    -3.6130     0.4220 hc         1 7BF       0.064700
     35 H9           2.7540    -4.1740     0.8990 hc         1 7BF       0.060700
     36 H10          1.7670    -4.8440    -0.4090 hc         1 7BF       0.060700
     37 H11          3.0950    -2.5510    -0.9380 h1         1 7BF       0.070700
     38 H12          1.3680    -2.6050    -1.3840 h1         1 7BF       0.070700
     39 H14          2.3430     0.0810     2.5050 ha         1 7BF       0.132000
     40 H15         -5.0290     2.4350     1.0150 ha         1 7BF       0.121000
     41 H16          0.0520    -0.5400     2.6480 h1         1 7BF       0.049200
     42 H17         -0.9060    -2.0340     2.7500 h1         1 7BF       0.049200
     43 H18          1.9380     1.1290    -3.8230 h5         1 7BF       0.069800
     44 H13          2.8600     2.4980     2.2500 h4         1 7BF       0.026100
@<TRIPOS>BOND
     1     1     2 ar  
     2     1     4 1   
     3     1    19 ar  
     4     2     3 ar  
     5     2    27 1   
     6     3    18 ar  
     7     3    28 1   
     8     4    22 1   
     9     5     6 ar  
    10     5    18 ar  
    11     5    19 ar  
    12     6    20 ar  
    13     6    29 1   
    14     7     8 ar  
    15     7    20 ar  
    16     7    30 1   
    17     8    19 ar  
    18     8    31 1   
    19     9    10 1   
    20     9    21 1   
    21     9    22 1   
    22     9    32 1   
    23    10    11 1   
    24    10    33 1   
    25    10    34 1   
    26    11    12 1   
    27    11    35 1   
    28    11    36 1   
    29    12    21 1   
    30    12    37 1   
    31    12    38 1   
    32    13    14 1   
    33    13    24 2   
    34    13    44 1   
    35    14    23 2   
    36    14    39 1   
    37    15    16 1   
    38    15    17 2   
    39    15    24 1   
    40    16    23 1   
    41    16    25 1   
    42    17    26 1   
    43    18    40 1   
    44    21    23 1   
    45    22    41 1   
    46    22    42 1   
    47    25    26 2   
    48    26    43 1   
@<TRIPOS>SUBSTRUCTURE
     1 7BF         1 TEMP              0 ****  ****    0 ROOT
