@<TRIPOS>MOLECULE
7BH
   42    45     1     0     0
SMALL
abcg2


@<TRIPOS>ATOM
      1 C1          -0.0680    -1.6760    -1.6580 c5         1 7BH       0.252500
      2 C2           0.3610    -3.1160    -1.3360 c5         1 7BH      -0.094400
      3 C3          -0.6830    -3.6260    -0.3510 c5         1 7BH      -0.090400
      4 C8           2.7040     0.2250    -0.2570 ca         1 7BH       0.144100
      5 C9           3.3730     0.9150    -1.2630 ca         1 7BH      -0.195000
      6 C10          4.4310     1.7580    -0.9370 ca         1 7BH      -0.073000
      7 C11          4.8210     1.9150     0.3810 ca         1 7BH      -0.145000
      8 C12          4.1410     1.2220     1.3790 ca         1 7BH      -0.076000
      9 C13          3.0820     0.3750     1.0870 ca         1 7BH      -0.110300
     10 C14         -1.6010    -0.1580    -0.4740 ca         1 7BH       0.435900
     11 C16         -2.2880     1.7860    -1.5140 ca         1 7BH       0.151900
     12 C19         -2.2610     0.3270     0.6730 ca         1 7BH      -0.255200
     13 C21         -3.1530     0.8810     2.5870 cc         1 7BH       0.426700
     14 C4          -1.0320    -2.3800     0.4490 c5         1 7BH       0.227800
     15 N5          -0.9590    -1.3310    -0.5520 nh         1 7BH      -0.785300
     16 C6           1.1160    -0.7260    -1.7670 c3         1 7BH       0.147600
     17 O7           1.6760    -0.6160    -0.4760 os         1 7BH      -0.353100
     18 N15         -2.9480     2.3160    -0.5070 nb         1 7BH      -0.156000
     19 N17         -1.6350     0.6260    -1.5560 nb         1 7BH      -0.292000
     20 C18         -2.9120     1.5590     0.5980 ca         1 7BH       0.254000
     21 N20         -2.4330    -0.0770     1.9750 na         1 7BH      -0.293600
     22 N22         -3.4670     1.8800     1.8010 nd         1 7BH      -0.642700
     23 C23          2.3460    -0.3640     2.1650 c3         1 7BH      -0.029800
     24 H1          -0.6120    -1.6370    -2.6060 h1         1 7BH       0.081700
     25 H2           0.4250    -3.7210    -2.2390 hc         1 7BH       0.061200
     26 H3           1.3470    -3.1200    -0.8680 hc         1 7BH       0.061200
     27 H4          -1.5690    -3.9850    -0.8770 hc         1 7BH       0.057200
     28 H5          -0.3150    -4.4340     0.2800 hc         1 7BH       0.057200
     29 H6           3.0860     0.8040    -2.3000 ha         1 7BH       0.116000
     30 H7           4.9440     2.2910    -1.7270 ha         1 7BH       0.112000
     31 H8           5.6460     2.5670     0.6360 ha         1 7BH       0.115000
     32 H9           4.4410     1.3450     2.4130 ha         1 7BH       0.111000
     33 H10         -2.2690     2.3590    -2.4350 h5         1 7BH       0.045100
     34 H11         -3.4240     0.7970     3.6280 h5         1 7BH       0.064800
     35 H12         -2.0320    -2.4480     0.8770 h1         1 7BH       0.045200
     36 H13         -0.3090    -2.2180     1.2570 h1         1 7BH       0.045200
     37 H14          1.8340    -1.1450    -2.4820 h1         1 7BH       0.053700
     38 H15          0.8000     0.2530    -2.1360 h1         1 7BH       0.053700
     39 H16         -2.0800    -0.9070     2.4230 hn         1 7BH       0.357000
     40 H18          2.4490    -1.4460     2.0590 hc         1 7BH       0.037700
     41 H19          2.7230    -0.0900     3.1490 hc         1 7BH       0.037700
     42 H20          1.2760    -0.1480     2.1440 hc         1 7BH       0.037700
@<TRIPOS>BOND
     1     1     2 1   
     2     1    15 1   
     3     1    16 1   
     4     1    24 1   
     5     2     3 1   
     6     2    25 1   
     7     2    26 1   
     8     3    14 1   
     9     3    27 1   
    10     3    28 1   
    11     4     5 ar  
    12     4     9 ar  
    13     4    17 1   
    14     5     6 ar  
    15     5    29 1   
    16     6     7 ar  
    17     6    30 1   
    18     7     8 ar  
    19     7    31 1   
    20     8     9 ar  
    21     8    32 1   
    22     9    23 1   
    23    10    12 ar  
    24    10    15 1   
    25    10    19 ar  
    26    11    18 ar  
    27    11    19 ar  
    28    11    33 1   
    29    12    20 ar  
    30    12    21 1   
    31    13    21 1   
    32    13    22 2   
    33    13    34 1   
    34    14    15 1   
    35    14    35 1   
    36    14    36 1   
    37    16    17 1   
    38    16    37 1   
    39    16    38 1   
    40    18    20 ar  
    41    20    22 1   
    42    21    39 1   
    43    23    40 1   
    44    23    41 1   
    45    23    42 1   
@<TRIPOS>SUBSTRUCTURE
     1 7BH         1 TEMP              0 ****  ****    0 ROOT
