@<TRIPOS>MOLECULE
7BH
   42    45     1     0     0
SMALL
No Charge or Current Charge


@<TRIPOS>ATOM
      1 C1          -0.0370    -1.7900    -1.6110 c5         1 7BH       0.252500
      2 C2           0.3700    -3.2170    -1.1420 c5         1 7BH      -0.094400
      3 C3          -0.9910    -3.7800    -0.6630 c5         1 7BH      -0.090400
      4 C8           2.7680     0.3050    -0.1860 ca         1 7BH       0.144100
      5 C9           3.4230     0.9720    -1.2450 ca         1 7BH      -0.195000
      6 C10          4.4760     1.8630    -0.9740 ca         1 7BH      -0.073000
      7 C11          4.8780     2.0910     0.3510 ca         1 7BH      -0.145000
      8 C12          4.2300     1.4310     1.4080 ca         1 7BH      -0.076000
      9 C13          3.1730     0.5360     1.1470 ca         1 7BH      -0.110300
     10 C14         -1.7040    -0.1750    -0.5160 ca         1 7BH       0.435900
     11 C16         -2.4360     1.7380    -1.5700 ca         1 7BH       0.151900
     12 C19         -2.1960     0.3770     0.6810 ca         1 7BH      -0.255200
     13 C21         -2.7980     0.9030     2.7470 cc         1 7BH       0.426700
     14 C4          -1.4980    -2.6080     0.2130 c5         1 7BH       0.227800
     15 N5          -1.0800    -1.4370    -0.5950 nh         1 7BH      -0.785300
     16 C6           1.1620    -0.7960    -1.7200 c3         1 7BH       0.147600
     17 O7           1.7300    -0.5780    -0.4100 os         1 7BH      -0.353100
     18 N15         -2.9290     2.3180    -0.4510 nb         1 7BH      -0.156000
     19 N17         -1.8290     0.5300    -1.6610 nb         1 7BH      -0.292000
     20 C18         -2.7910     1.6090     0.6850 ca         1 7BH       0.254000
     21 N20         -2.1830    -0.0730     1.9740 na         1 7BH      -0.293600
     22 N22         -3.1820     1.9470     1.9810 nd         1 7BH      -0.642700
     23 C23          2.4710    -0.1690     2.3030 c3         1 7BH      -0.029800
     24 H1          -0.4980    -1.8550    -2.6080 h1         1 7BH       0.081700
     25 H2           0.8140    -3.8090    -1.9500 hc         1 7BH       0.061200
     26 H3           1.0960    -3.1860    -0.3200 hc         1 7BH       0.061200
     27 H4          -1.6670    -3.9730    -1.5040 hc         1 7BH       0.057200
     28 H5          -0.8920    -4.7120    -0.0960 hc         1 7BH       0.057200
     29 H6           3.1340     0.8120    -2.2790 ha         1 7BH       0.116000
     30 H7           4.9800     2.3750    -1.7910 ha         1 7BH       0.112000
     31 H8           5.6930     2.7800     0.5590 ha         1 7BH       0.115000
     32 H9           4.5510     1.6180     2.4310 ha         1 7BH       0.111000
     33 H10         -2.5380     2.3030    -2.4950 h5         1 7BH       0.045100
     34 H11         -2.9250     0.8050     3.8190 h5         1 7BH       0.064800
     35 H12         -2.5860    -2.6540     0.3590 h1         1 7BH       0.045200
     36 H13         -1.0070    -2.6070     1.1960 h1         1 7BH       0.045200
     37 H14          1.9100    -1.2170    -2.4040 h1         1 7BH       0.053700
     38 H15          0.8040     0.1500    -2.1450 h1         1 7BH       0.053700
     39 H16         -1.7830    -0.9340     2.3230 hn         1 7BH       0.357000
     40 H18          2.5720    -1.2580     2.2170 hc         1 7BH       0.037700
     41 H19          2.8850     0.1260     3.2740 hc         1 7BH       0.037700
     42 H20          1.4000     0.0680     2.3140 hc         1 7BH       0.037700
@<TRIPOS>BOND
     1     1     2 1   
     2     1    15 1   
     3     1    16 1   
     4     1    24 1   
     5     2     3 1   
     6     2    25 1   
     7     2    26 1   
     8     3    14 1   
     9     3    27 1   
    10     3    28 1   
    11     4     5 ar  
    12     4     9 ar  
    13     4    17 1   
    14     5     6 ar  
    15     5    29 1   
    16     6     7 ar  
    17     6    30 1   
    18     7     8 ar  
    19     7    31 1   
    20     8     9 ar  
    21     8    32 1   
    22     9    23 1   
    23    10    12 ar  
    24    10    15 1   
    25    10    19 ar  
    26    11    18 ar  
    27    11    19 ar  
    28    11    33 1   
    29    12    20 ar  
    30    12    21 1   
    31    13    21 1   
    32    13    22 2   
    33    13    34 1   
    34    14    15 1   
    35    14    35 1   
    36    14    36 1   
    37    16    17 1   
    38    16    37 1   
    39    16    38 1   
    40    18    20 ar  
    41    20    22 1   
    42    21    39 1   
    43    23    40 1   
    44    23    41 1   
    45    23    42 1   
@<TRIPOS>SUBSTRUCTURE
     1 7BH         1 TEMP              0 ****  ****    0 ROOT
