@<TRIPOS>MOLECULE
7BI
   24    23     1     0     0
SMALL
No Charge or Current Charge


@<TRIPOS>ATOM
      1 C4          13.4440   -16.7940     0.0880 ce         1 7BI       0.045900
      2 C6          12.9960   -17.0010     1.3650 c2         1 7BI      -0.159100
      3 C8          12.3830   -18.2910     1.9220 c3         1 7BI      -0.008200
      4 O3          13.0060   -18.9490    -0.9060 o          1 7BI      -0.683000
      5 C2          13.4320   -17.8140    -1.0650 c          1 7BI       0.684200
      6 O1          13.8800   -17.4200    -2.1370 o          1 7BI      -0.683000
      7 O5          13.9740   -15.5830    -0.2870 oh         1 7BI      -0.548100
      8 O7          13.0540   -16.0170     2.2940 oh         1 7BI      -0.571100
      9 C9          13.4130   -19.4020     2.2450 c3         1 7BI       0.157900
     10 S10         14.5000   -18.9400     3.6940 s4         1 7BI      -0.389900
     11 C11         15.3170   -20.6040     3.9030 c3         1 7BI       0.080200
     12 C12         15.8810   -18.1370     2.7270 c3         1 7BI       0.080200
     13 H1          11.8010   -18.0950     2.8320 hc         1 7BI       0.087700
     14 H2          11.6480   -18.6920     1.2140 hc         1 7BI       0.087700
     15 H4          14.2000   -15.7200    -1.2400 ho         1 7BI       0.504000
     16 H5          12.7510   -16.3750     3.1570 ho         1 7BI       0.427000
     17 H6          12.8750   -20.3230     2.5070 h1         1 7BI       0.104200
     18 H7          14.0370   -19.6130     1.3690 h1         1 7BI       0.104200
     19 H8          16.1810   -20.5040     4.5730 h1         1 7BI       0.113033
     20 H9          14.6010   -21.3080     4.3470 h1         1 7BI       0.113033
     21 H10         15.6530   -20.9910     2.9320 h1         1 7BI       0.113033
     22 H11         16.7700   -18.0540     3.3650 h1         1 7BI       0.113033
     23 H12         16.1280   -18.7310     1.8380 h1         1 7BI       0.113033
     24 H13         15.5740   -17.1300     2.4160 h1         1 7BI       0.113033
@<TRIPOS>BOND
     1     1     2 2   
     2     1     5 1   
     3     1     7 1   
     4     2     3 1   
     5     2     8 1   
     6     3     9 1   
     7     3    13 1   
     8     3    14 1   
     9     4     5 1   
    10     5     6 1   
    11     7    15 1   
    12     8    16 1   
    13     9    10 1   
    14     9    17 1   
    15     9    18 1   
    16    10    11 1   
    17    10    12 1   
    18    11    19 1   
    19    11    20 1   
    20    11    21 1   
    21    12    22 1   
    22    12    23 1   
    23    12    24 1   
@<TRIPOS>SUBSTRUCTURE
     1 7BI         1 TEMP              0 ****  ****    0 ROOT
