@<TRIPOS>MOLECULE
7BI
   24    23     1     0     0
SMALL
bcc


@<TRIPOS>ATOM
      1 C4          13.4280   -16.8170     0.1640 ce         1 7BI       0.045900
      2 C6          13.0080   -17.1200     1.3980 c2         1 7BI      -0.159100
      3 C8          12.3800   -18.4090     1.8260 c3         1 7BI      -0.008200
      4 O3          12.8500   -18.8190    -1.0280 o          1 7BI      -0.788300
      5 C2          13.3280   -17.6760    -1.0850 c          1 7BI       0.894800
      6 O1          13.7840   -17.0880    -2.0950 o          1 7BI      -0.788300
      7 O5          14.0540   -15.6390    -0.0700 oh         1 7BI      -0.509100
      8 O7          13.3210   -16.2470     2.4120 oh         1 7BI      -0.532100
      9 C9          13.3990   -19.4730     2.2080 c3         1 7BI       0.157900
     10 S10         14.5650   -18.8970     3.4830 s4         1 7BI      -0.389900
     11 C11         15.2830   -20.4570     4.0140 c3         1 7BI       0.080200
     12 C12         15.9410   -18.1960     2.5580 c3         1 7BI       0.080200
     13 H1          11.7000   -18.2360     2.6660 hc         1 7BI       0.087700
     14 H2          11.7880   -18.8350     1.0220 hc         1 7BI       0.087700
     15 H4          14.2210   -15.6970    -1.0360 ho         1 7BI       0.465000
     16 H5          12.6790   -16.3250     3.1260 ho         1 7BI       0.388000
     17 H6          12.9100   -20.3380     2.6580 h1         1 7BI       0.104200
     18 H7          13.9850   -19.7990     1.3490 h1         1 7BI       0.104200
     19 H8          16.0950   -20.2290     4.7010 h1         1 7BI       0.113033
     20 H9          14.5080   -21.0150     4.5340 h1         1 7BI       0.113033
     21 H10         15.6500   -21.0130     3.1540 h1         1 7BI       0.113033
     22 H11         16.7510   -18.0480     3.2700 h1         1 7BI       0.113033
     23 H12         16.2420   -18.8800     1.7690 h1         1 7BI       0.113033
     24 H13         15.6320   -17.2380     2.1530 h1         1 7BI       0.113033
@<TRIPOS>BOND
     1     1     2 2   
     2     1     5 1   
     3     1     7 1   
     4     2     3 1   
     5     2     8 1   
     6     3     9 1   
     7     3    13 1   
     8     3    14 1   
     9     4     5 1   
    10     5     6 1   
    11     7    15 1   
    12     8    16 1   
    13     9    10 1   
    14     9    17 1   
    15     9    18 1   
    16    10    11 1   
    17    10    12 1   
    18    11    19 1   
    19    11    20 1   
    20    11    21 1   
    21    12    22 1   
    22    12    23 1   
    23    12    24 1   
@<TRIPOS>SUBSTRUCTURE
     1 7BI         1 TEMP              0 ****  ****    0 ROOT
