@<TRIPOS>MOLECULE
7BJ
   41    43     1     0     0
SMALL
No Charge or Current Charge


@<TRIPOS>ATOM
      1 C2          -5.1890    -1.0340    -0.3540 ca         1 7BJ       0.131000
      2 C3          -4.9530     0.2750    -0.8050 ca         1 7BJ      -0.114000
      3 C5          -2.7770     0.2590     0.3060 ca         1 7BJ       0.129100
      4 C7          -1.2090     2.1670     0.2320 c3         1 7BJ       0.137600
      5 C8           0.2060     2.4770     0.7640 c3         1 7BJ       0.118000
      6 C10          1.9150     1.6790    -0.8720 c          1 7BJ       0.613000
      7 C13          2.7260    -0.2750     0.1710 c5         1 7BJ       0.037400
      8 C14          2.2700    -1.6960    -0.2760 c6         1 7BJ      -0.075900
      9 C15          3.3350    -2.4110    -1.1480 c6         1 7BJ      -0.074400
     10 C16          4.6910    -2.5010    -0.4100 c6         1 7BJ      -0.078400
     11 C19          1.6340     0.4270     1.0570 c          1 7BJ       0.570000
     12 C21         -3.0240    -1.0510     0.7520 ca         1 7BJ      -0.147000
     13 C22         -4.2280    -1.7000     0.4240 ca         1 7BJ      -0.114000
     14 F1          -6.3460    -1.6550    -0.6700 f          1 7BJ      -0.181000
     15 C4          -3.7480     0.9260    -0.4770 ca         1 7BJ      -0.147000
     16 O6          -1.5780     0.8410     0.6580 os         1 7BJ      -0.343100
     17 N9           1.2320     1.5140     0.3010 n          1 7BJ      -0.385400
     18 N12          2.8030     0.6560    -0.9770 ns         1 7BJ      -0.512900
     19 C17          5.1690    -1.1040     0.0510 c6         1 7BJ      -0.074400
     20 C18          4.0890    -0.4000     0.9140 c6         1 7BJ      -0.075900
     21 O20          1.2250     0.1350     2.1730 o          1 7BJ      -0.495000
     22 H23         -5.7030     0.7830    -1.4070 ha         1 7BJ       0.131500
     23 H26         -1.9140     2.9120     0.6230 h1         1 7BJ       0.049200
     24 H25         -1.2020     2.2340    -0.8640 h1         1 7BJ       0.049200
     25 H27          0.4900     3.4880     0.4440 h1         1 7BJ       0.079200
     26 H28          0.1790     2.4850     1.8610 h1         1 7BJ       0.079200
     27 H31          2.0550    -2.3090     0.6110 hc         1 7BJ       0.062950
     28 H30          1.3250    -1.6250    -0.8320 hc         1 7BJ       0.062950
     29 H33          2.9860    -3.4210    -1.4070 hc         1 7BJ       0.043450
     30 H32          3.4630    -1.8760    -2.0990 hc         1 7BJ       0.043450
     31 H35          4.5950    -3.1650     0.4610 hc         1 7BJ       0.045200
     32 H34          5.4450    -2.9570    -1.0670 hc         1 7BJ       0.045200
     33 H40         -2.2770    -1.5640     1.3540 ha         1 7BJ       0.127000
     34 H41         -4.4180    -2.7130     0.7690 ha         1 7BJ       0.131500
     35 H24         -3.5860     1.9380    -0.8360 ha         1 7BJ       0.127000
     36 H29          3.4080     0.5930    -1.7880 hn         1 7BJ       0.350500
     37 H37          6.1000    -1.2010     0.6270 hc         1 7BJ       0.043450
     38 H36          5.4120    -0.4860    -0.8250 hc         1 7BJ       0.043450
     39 H38          4.4440     0.5980     1.2070 hc         1 7BJ       0.062950
     40 H39          3.9490    -0.9610     1.8490 hc         1 7BJ       0.062950
     41 O11          1.7640     2.5730    -1.6850 o          1 7BJ      -0.558000
@<TRIPOS>BOND
     1     1     2 ar  
     2     1    13 ar  
     3     1    14 1   
     4     2    15 ar  
     5     2    22 1   
     6     3    12 ar  
     7     3    15 ar  
     8     3    16 1   
     9     4     5 1   
    10     4    16 1   
    11     4    23 1   
    12     4    24 1   
    13     5    17 1   
    14     5    25 1   
    15     5    26 1   
    16     6    17 1   
    17     6    18 1   
    18     6    41 2   
    19     7     8 1   
    20     7    11 1   
    21     7    18 1   
    22     7    20 1   
    23     8     9 1   
    24     8    27 1   
    25     8    28 1   
    26     9    10 1   
    27     9    29 1   
    28     9    30 1   
    29    10    19 1   
    30    10    31 1   
    31    10    32 1   
    32    11    17 1   
    33    11    21 2   
    34    12    13 ar  
    35    12    33 1   
    36    13    34 1   
    37    15    35 1   
    38    18    36 1   
    39    19    20 1   
    40    19    37 1   
    41    19    38 1   
    42    20    39 1   
    43    20    40 1   
@<TRIPOS>SUBSTRUCTURE
     1 7BJ         1 TEMP              0 ****  ****    0 ROOT
