@<TRIPOS>MOLECULE
7BJ
   41    43     1     0     0
SMALL
bcc


@<TRIPOS>ATOM
      1 C2          -4.6450    -1.2180    -0.5690 ca         1 7BJ       0.095900
      2 C3          -4.5710     0.1190    -0.8910 ca         1 7BJ      -0.132000
      3 C5          -2.4810     0.2660     0.3000 ca         1 7BJ       0.129100
      4 C7          -1.1370     2.2300     0.3510 c3         1 7BJ       0.114400
      5 C8           0.2390     2.6070     0.8640 c3         1 7BJ       0.118000
      6 C10          1.7980     1.7180    -0.8730 c          1 7BJ       0.822500
      7 C13          2.6160    -0.1860     0.1990 c5         1 7BJ       0.037400
      8 C14          1.9870    -1.5550    -0.1060 c6         1 7BJ      -0.075900
      9 C15          2.8930    -2.3960    -0.9970 c6         1 7BJ      -0.074400
     10 C16          4.2790    -2.5600    -0.3820 c6         1 7BJ      -0.078400
     11 C19          1.6960     0.6020     1.1170 c          1 7BJ       0.712500
     12 C21         -2.5780    -1.0910     0.6130 ca         1 7BJ      -0.165000
     13 C22         -3.6610    -1.8370     0.1810 ca         1 7BJ      -0.132000
     14 F1          -5.6980    -1.9420    -0.9930 f          1 7BJ      -0.145900
     15 C4          -3.4840     0.8680    -0.4540 ca         1 7BJ      -0.165000
     16 O6          -1.3950     0.9080     0.7750 os         1 7BJ      -0.319900
     17 N9           1.2500     1.6810     0.4120 n          1 7BJ      -0.519400
     18 N12          2.6350     0.6710    -0.9690 ns         1 7BJ      -0.579900
     19 C17          4.9090    -1.2080    -0.0660 c6         1 7BJ      -0.074400
     20 C18          4.0040    -0.3600     0.8210 c6         1 7BJ      -0.075900
     21 O20          1.4150     0.3210     2.2570 o          1 7BJ      -0.570500
     22 H23         -5.3510     0.5880    -1.4770 ha         1 7BJ       0.149500
     23 H26         -1.8740     2.9330     0.7560 h1         1 7BJ       0.049200
     24 H25         -1.1690     2.3020    -0.7410 h1         1 7BJ       0.049200
     25 H27          0.4850     3.6110     0.5210 h1         1 7BJ       0.079200
     26 H28          0.2550     2.6210     1.9530 h1         1 7BJ       0.079200
     27 H31          1.8210    -2.0720     0.8430 hc         1 7BJ       0.062950
     28 H30          1.0060    -1.4140    -0.5690 hc         1 7BJ       0.062950
     29 H33          2.4290    -3.3700    -1.1630 hc         1 7BJ       0.043450
     30 H32          2.9820    -1.9320    -1.9850 hc         1 7BJ       0.043450
     31 H35          4.2010    -3.1490     0.5380 hc         1 7BJ       0.045200
     32 H34          4.9240    -3.1250    -1.0580 hc         1 7BJ       0.045200
     33 H40         -1.7970    -1.5610     1.1970 ha         1 7BJ       0.145000
     34 H41         -3.7340    -2.8890     0.4260 ha         1 7BJ       0.149500
     35 H24         -3.4460     1.9180    -0.7100 ha         1 7BJ       0.145000
     36 H29          3.0850     0.4360    -1.8400 hn         1 7BJ       0.350500
     37 H37          5.8710    -1.3450     0.4320 hc         1 7BJ       0.043450
     38 H36          5.1260    -0.6740    -0.9980 hc         1 7BJ       0.043450
     39 H38          4.4500     0.6200     1.0060 hc         1 7BJ       0.062950
     40 H39          3.8820    -0.8460     1.7920 hc         1 7BJ       0.062950
     41 O11          1.5400     2.5640    -1.7030 o          1 7BJ      -0.633500
@<TRIPOS>BOND
     1     1     2 ar  
     2     1    13 ar  
     3     1    14 1   
     4     2    15 ar  
     5     2    22 1   
     6     3    12 ar  
     7     3    15 ar  
     8     3    16 1   
     9     4     5 1   
    10     4    16 1   
    11     4    23 1   
    12     4    24 1   
    13     5    17 1   
    14     5    25 1   
    15     5    26 1   
    16     6    17 1   
    17     6    18 1   
    18     6    41 2   
    19     7     8 1   
    20     7    11 1   
    21     7    18 1   
    22     7    20 1   
    23     8     9 1   
    24     8    27 1   
    25     8    28 1   
    26     9    10 1   
    27     9    29 1   
    28     9    30 1   
    29    10    19 1   
    30    10    31 1   
    31    10    32 1   
    32    11    17 1   
    33    11    21 2   
    34    12    13 ar  
    35    12    33 1   
    36    13    34 1   
    37    15    35 1   
    38    18    36 1   
    39    19    20 1   
    40    19    37 1   
    41    19    38 1   
    42    20    39 1   
    43    20    40 1   
@<TRIPOS>SUBSTRUCTURE
     1 7BJ         1 TEMP              0 ****  ****    0 ROOT
