@<TRIPOS>MOLECULE
7BK
   44    46     1     0     0
SMALL
No Charge or Current Charge


@<TRIPOS>ATOM
      1 C1          -1.3080     1.1230     0.3020 c3         1 7BK      -0.089100
      2 C2          -2.4720     0.0890     0.2990 c5         1 7BK      -0.009700
      3 C3          -2.1820    -1.1050    -0.6870 c5         1 7BK       0.103000
      4 N4          -1.3820    -2.0110     0.1690 n          1 7BK      -0.420800
      5 C5          -0.3740    -2.9630    -0.3590 c3         1 7BK       0.110000
      6 C6           0.8210    -2.2890    -1.0690 c3         1 7BK       0.139600
      7 C8           2.5090    -0.5780    -0.5000 ca         1 7BK       0.129100
      8 C10          4.1490     0.2620    -2.1010 ca         1 7BK      -0.118000
      9 C11          4.6460     1.1460    -1.1300 ca         1 7BK       0.168000
     10 C13          4.0800     1.1750     0.1610 ca         1 7BK      -0.021000
     11 C14          4.5810     2.0760     1.1610 cg         1 7BK       0.326000
     12 C16          3.0120     0.3080     0.4680 ca         1 7BK      -0.085000
     13 C19         -2.5600    -0.6830     1.6550 c5         1 7BK      -0.163400
     14 C21         -4.0760     2.0580    -0.2280 ca         1 7BK      -0.105500
     15 C22         -5.3470     2.5830    -0.5220 ca         1 7BK      -0.108500
     16 C23         -6.4570     1.7340    -0.6210 ca         1 7BK      -0.106000
     17 C24         -6.2930     0.3570    -0.4240 ca         1 7BK      -0.108500
     18 C25         -5.0230    -0.1690    -0.1300 ca         1 7BK      -0.105500
     19 O7           1.4590    -1.3950    -0.1390 os         1 7BK      -0.327100
     20 C9           3.0810    -0.6020    -1.7920 ca         1 7BK      -0.159000
     21 F12          5.6730     1.9670    -1.4520 f          1 7BK      -0.163000
     22 N15          4.9790     2.8040     1.9820 n1         1 7BK      -0.432000
     23 C17         -1.4460    -1.7170     1.5350 c          1 7BK       0.570000
     24 O18         -0.6380    -2.0790     2.3780 o          1 7BK      -0.542000
     25 C20         -3.8810     0.6680    -0.0260 ca         1 7BK      -0.071300
     26 H27         -1.2140     1.6180    -0.6720 hc         1 7BK       0.044367
     27 H28         -1.4610     1.8950     1.0660 hc         1 7BK       0.044367
     28 H26         -0.3440     0.6480     0.5160 hc         1 7BK       0.044367
     29 H29         -3.0830    -1.6230    -1.0320 h1         1 7BK       0.047700
     30 H30         -1.6290    -0.7730    -1.5750 h1         1 7BK       0.047700
     31 H32          0.0060    -3.5940     0.4550 h1         1 7BK       0.070700
     32 H31         -0.8720    -3.6290    -1.0740 h1         1 7BK       0.070700
     33 H34          1.5230    -3.0600    -1.4100 h1         1 7BK       0.039200
     34 H33          0.4560    -1.7390    -1.9460 h1         1 7BK       0.039200
     35 H36          4.5930     0.2470    -3.0930 ha         1 7BK       0.137000
     36 H37          2.5640     0.3190     1.4590 ha         1 7BK       0.149000
     37 H38         -2.4450    -0.0710     2.5560 hc         1 7BK       0.081700
     38 H39         -3.4950    -1.2440     1.7250 hc         1 7BK       0.081700
     39 H40         -3.2490     2.7580    -0.1610 ha         1 7BK       0.112500
     40 H41         -5.4690     3.6530    -0.6720 ha         1 7BK       0.114000
     41 H42         -7.4400     2.1420    -0.8480 ha         1 7BK       0.115000
     42 H43         -7.1510    -0.3070    -0.4980 ha         1 7BK       0.114000
     43 H44         -4.9430    -1.2430     0.0180 ha         1 7BK       0.112500
     44 H35          2.7160    -1.2770    -2.5600 ha         1 7BK       0.123000
@<TRIPOS>BOND
     1     1     2 1   
     2     1    26 1   
     3     1    27 1   
     4     1    28 1   
     5     2     3 1   
     6     2    13 1   
     7     2    25 1   
     8     3     4 1   
     9     3    29 1   
    10     3    30 1   
    11     4     5 1   
    12     4    23 1   
    13     5     6 1   
    14     5    31 1   
    15     5    32 1   
    16     6    19 1   
    17     6    33 1   
    18     6    34 1   
    19     7    12 ar  
    20     7    19 1   
    21     7    20 ar  
    22     8     9 ar  
    23     8    20 ar  
    24     8    35 1   
    25     9    10 ar  
    26     9    21 1   
    27    10    11 1   
    28    10    12 ar  
    29    11    22 3   
    30    12    36 1   
    31    13    23 1   
    32    13    37 1   
    33    13    38 1   
    34    14    15 ar  
    35    14    25 ar  
    36    14    39 1   
    37    15    16 ar  
    38    15    40 1   
    39    16    17 ar  
    40    16    41 1   
    41    17    18 ar  
    42    17    42 1   
    43    18    25 ar  
    44    18    43 1   
    45    20    44 1   
    46    23    24 2   
@<TRIPOS>SUBSTRUCTURE
     1 7BK         1 TEMP              0 ****  ****    0 ROOT
