@<TRIPOS>MOLECULE
7BK
   44    46     1     0     0
SMALL
bcc


@<TRIPOS>ATOM
      1 C1          -1.4280     1.1980     0.1400 c3         1 7BK      -0.089100
      2 C2          -2.5180     0.1300     0.2430 c5         1 7BK      -0.009700
      3 C3          -2.1350    -1.0430    -0.6870 c5         1 7BK       0.103000
      4 N4          -1.2700    -1.8620     0.1370 n          1 7BK      -0.487800
      5 C5          -0.3740    -2.8350    -0.4280 c3         1 7BK       0.110000
      6 C6           0.8300    -2.1940    -1.0870 c3         1 7BK       0.116400
      7 C8           2.5240    -0.6410    -0.4660 ca         1 7BK       0.129100
      8 C10          4.1350     0.2500    -2.0340 ca         1 7BK      -0.136000
      9 C11          4.6430     1.0550    -1.0420 ca         1 7BK       0.132900
     10 C13          4.1090     1.0270     0.2410 ca         1 7BK      -0.021000
     11 C14          4.6570     1.8710     1.2500 cg         1 7BK       0.236800
     12 C16          3.0470     0.1780     0.5300 ca         1 7BK      -0.103000
     13 C19         -2.4220    -0.5300     1.6300 c5         1 7BK      -0.163400
     14 C21         -4.1470     2.0080    -0.3300 ca         1 7BK      -0.123500
     15 C22         -5.4340     2.4740    -0.5780 ca         1 7BK      -0.126500
     16 C23         -6.5110     1.6030    -0.5570 ca         1 7BK      -0.124000
     17 C24         -6.2890     0.2580    -0.2830 ca         1 7BK      -0.126500
     18 C25         -5.0050    -0.2000    -0.0340 ca         1 7BK      -0.123500
     19 O7           1.5010    -1.4300    -0.1020 os         1 7BK      -0.303900
     20 C9           3.0750    -0.6010    -1.7460 ca         1 7BK      -0.177000
     21 F12          5.6620     1.8810    -1.2920 f          1 7BK      -0.127900
     22 N15          5.0970     2.5520     2.0670 n1         1 7BK      -0.342800
     23 C17         -1.3920    -1.6230     1.4580 c          1 7BK       0.712500
     24 O18         -0.8040    -2.2100     2.3500 o          1 7BK      -0.617500
     25 C20         -3.9070     0.6650    -0.0530 ca         1 7BK      -0.071300
     26 H27         -1.3970     1.6490    -0.8520 hc         1 7BK       0.044367
     27 H28         -1.5740     1.9920     0.8730 hc         1 7BK       0.044367
     28 H26         -0.4480     0.7550     0.3270 hc         1 7BK       0.044367
     29 H29         -3.0030    -1.6190    -1.0220 h1         1 7BK       0.047700
     30 H30         -1.6170    -0.6910    -1.5810 h1         1 7BK       0.047700
     31 H32         -0.0550    -3.5160     0.3610 h1         1 7BK       0.070700
     32 H31         -0.8980    -3.4320    -1.1790 h1         1 7BK       0.070700
     33 H34          1.4800    -2.9770    -1.4930 h1         1 7BK       0.039200
     34 H33          0.5180    -1.5570    -1.9230 h1         1 7BK       0.039200
     35 H36          4.5570     0.2780    -3.0290 ha         1 7BK       0.155000
     36 H37          2.6270     0.1550     1.5270 ha         1 7BK       0.167000
     37 H38         -2.1390     0.1700     2.4170 hc         1 7BK       0.081700
     38 H39         -3.3620    -0.9950     1.9400 hc         1 7BK       0.081700
     39 H40         -3.3320     2.7180    -0.3520 ha         1 7BK       0.130500
     40 H41         -5.5890     3.5250    -0.7860 ha         1 7BK       0.132000
     41 H42         -7.5130     1.9640    -0.7500 ha         1 7BK       0.133000
     42 H43         -7.1180    -0.4370    -0.2600 ha         1 7BK       0.132000
     43 H44         -4.8640    -1.2530     0.1790 ha         1 7BK       0.130500
     44 H35          2.6980    -1.2300    -2.5400 ha         1 7BK       0.141000
@<TRIPOS>BOND
     1     1     2 1   
     2     1    26 1   
     3     1    27 1   
     4     1    28 1   
     5     2     3 1   
     6     2    13 1   
     7     2    25 1   
     8     3     4 1   
     9     3    29 1   
    10     3    30 1   
    11     4     5 1   
    12     4    23 1   
    13     5     6 1   
    14     5    31 1   
    15     5    32 1   
    16     6    19 1   
    17     6    33 1   
    18     6    34 1   
    19     7    12 ar  
    20     7    19 1   
    21     7    20 ar  
    22     8     9 ar  
    23     8    20 ar  
    24     8    35 1   
    25     9    10 ar  
    26     9    21 1   
    27    10    11 1   
    28    10    12 ar  
    29    11    22 3   
    30    12    36 1   
    31    13    23 1   
    32    13    37 1   
    33    13    38 1   
    34    14    15 ar  
    35    14    25 ar  
    36    14    39 1   
    37    15    16 ar  
    38    15    40 1   
    39    16    17 ar  
    40    16    41 1   
    41    17    18 ar  
    42    17    42 1   
    43    18    25 ar  
    44    18    43 1   
    45    20    44 1   
    46    23    24 2   
@<TRIPOS>SUBSTRUCTURE
     1 7BK         1 TEMP              0 ****  ****    0 ROOT
