@<TRIPOS>MOLECULE
7BN
   81    83     1     0     0
SMALL
abcg2


@<TRIPOS>ATOM
      1 C4          21.5130     7.8570    20.2240 c6         1 7BN       0.117300
      2 C5          22.2840     6.5550    20.4090 c6         1 7BN       0.171300
      3 C6          21.3930     5.3320    20.3650 c3         1 7BN       0.173600
      4 C3          22.4990     9.0260    20.1760 c6         1 7BN       0.090300
      5 O2          24.6150     9.8010    19.2870 oh         1 7BN      -0.712000
      6 C2          23.6220     8.7840    19.1780 c6         1 7BN       0.143300
      7 O3          21.8380    10.2330    19.7790 oh         1 7BN      -0.680000
      8 O4          20.7400     7.7910    19.0290 oh         1 7BN      -0.709000
      9 O6          22.1100     4.2280    20.9200 oh         1 7BN      -0.702000
     10 O5          23.2860     6.4090    19.4080 os         1 7BN      -0.427000
     11 C1          24.2820     7.4300    19.4420 c6         1 7BN       0.179300
     12 CBQ         25.3360     7.0810    18.4070 c3         1 7BN      -0.085400
     13 CBE         26.0660     5.7790    18.7330 c3         1 7BN       0.098000
     14 NAA         27.0530     5.4260    17.7240 ns         1 7BN      -0.502900
     15 CAB         28.3350     5.8330    17.7560 c          1 7BN       0.592100
     16 OAD         28.7870     6.5490    18.6530 o          1 7BN      -0.610100
     17 CAC         29.2110     5.3480    16.6110 c3         1 7BN      -0.154400
     18 CAE         30.5450     4.7740    17.0920 c3         1 7BN      -0.068700
     19 CAF         30.4010     3.5380    17.9210 cc         1 7BN       0.166300
     20 CAH         29.2660     2.9110    18.3790 cd         1 7BN      -0.162000
     21 NAG         31.4740     2.8360    18.3840 nc         1 7BN      -0.392000
     22 NAJ         31.0570     1.8210    19.0980 nd         1 7BN      -0.209800
     23 NAI         29.7200     1.8570    19.0940 na         1 7BN       0.156800
     24 CAR         28.8990     0.9610    19.9160 c6         1 7BN       0.166000
     25 CBA         28.6590     1.7400    21.2800 c          1 7BN       0.708000
     26 OBC         27.6940     2.5420    21.2840 o          1 7BN      -0.677500
     27 OBB         29.4770     1.5190    22.1880 o          1 7BN      -0.677500
     28 OAS         27.7090     0.8330    19.1740 os         1 7BN      -0.458000
     29 CAQ         29.5570    -0.4030    20.0700 c6         1 7BN      -0.114400
     30 CAP         28.5780    -1.4190    20.6590 c6         1 7BN       0.161300
     31 OBD         29.1250    -2.7350    20.6060 oh         1 7BN      -0.677000
     32 CAO         27.2650    -1.4300    19.8810 c6         1 7BN       0.074700
     33 NAN         26.3120    -2.3220    20.5180 ns         1 7BN      -0.477900
     34 CAL         25.4050    -3.0550    19.8530 c          1 7BN       0.599100
     35 OAM         25.2720    -2.9960    18.6210 o          1 7BN      -0.648100
     36 CAK         24.5370    -3.9620    20.6840 c3         1 7BN      -0.172100
     37 CAT         26.7310     0.0080    19.8030 c6         1 7BN       0.140300
     38 CAU         25.4340     0.1830    19.0170 c3         1 7BN       0.153300
     39 OAZ         25.5120    -0.3930    17.7200 oh         1 7BN      -0.739000
     40 CAV         25.1030     1.6780    18.8510 c3         1 7BN       0.187300
     41 OAY         25.2180     2.3810    20.0780 oh         1 7BN      -0.703000
     42 CAW         23.6890     1.8560    18.3370 c3         1 7BN       0.163600
     43 OAX         23.5440     3.1780    17.8090 oh         1 7BN      -0.719000
     44 H1          20.8520     7.9930    21.0900 h1         1 7BN       0.030700
     45 H2          22.7620     6.5960    21.3980 h1         1 7BN       0.058700
     46 H3          21.1070     5.1290    19.3300 h1         1 7BN       0.031200
     47 H4          20.4860     5.5310    20.9450 h1         1 7BN       0.031200
     48 H5          22.9430     9.1500    21.1690 h1         1 7BN       0.054700
     49 H6          24.1600    10.6520    19.2380 ho         1 7BN       0.507000
     50 H7          23.2010     8.7750    18.1660 h1         1 7BN       0.061700
     51 H8          21.3770    10.6020    20.5430 ho         1 7BN       0.444000
     52 H9          20.4830     8.7000    18.8150 ho         1 7BN       0.509000
     53 H10         21.6910     3.4110    20.6270 ho         1 7BN       0.500000
     54 H11         24.7380     7.4570    20.4420 h1         1 7BN       0.055700
     55 H12         26.0540     7.8990    18.3520 hc         1 7BN       0.056200
     56 H13         24.8540     6.9970    17.4280 hc         1 7BN       0.056200
     57 H14         25.3610     4.9540    18.8040 h1         1 7BN       0.086200
     58 H15         26.5810     5.8690    19.6900 h1         1 7BN       0.086200
     59 H16         26.7540     4.8460    16.9570 hn         1 7BN       0.310500
     60 H17         29.4100     6.2130    15.9750 hc         1 7BN       0.048200
     61 H18         28.6770     4.6150    16.0030 hc         1 7BN       0.048200
     62 H19         31.1710     4.5560    16.2230 hc         1 7BN       0.054700
     63 H20         31.0730     5.5330    17.6740 hc         1 7BN       0.054700
     64 H21         28.2190     3.1130    18.2690 h4         1 7BN       0.177000
     65 H23         29.8640    -0.7490    19.0810 hc         1 7BN       0.074700
     66 H24         30.4360    -0.3310    20.7060 hc         1 7BN       0.074700
     67 H25         28.3570    -1.1540    21.7000 h1         1 7BN       0.050700
     68 H26         29.8960    -2.7670    21.1860 ho         1 7BN       0.445000
     69 H27         27.4520    -1.7990    18.8720 h1         1 7BN       0.098700
     70 H28         26.3520    -2.4100    21.5220 hn         1 7BN       0.315500
     71 H29         24.6370    -4.9810    20.3080 hc         1 7BN       0.057367
     72 H30         24.7930    -3.9390    21.7420 hc         1 7BN       0.057367
     73 H31         23.4960    -3.6600    20.5570 hc         1 7BN       0.057367
     74 H32         26.5510     0.3590    20.8230 h1         1 7BN       0.074700
     75 H33         24.6340    -0.2920    19.5970 h1         1 7BN       0.025700
     76 H34         25.4570    -1.3620    17.8430 ho         1 7BN       0.533000
     77 H35         25.7940     2.0900    18.1080 h1         1 7BN       0.058700
     78 H36         26.1600     2.4390    20.3560 ho         1 7BN       0.516000
     79 H37         22.9910     1.6930    19.1650 h1         1 7BN       0.023700
     80 H38         23.4910     1.1130    17.5600 h1         1 7BN       0.023700
     81 H39         22.6090     3.4110    17.8160 ho         1 7BN       0.488000
@<TRIPOS>BOND
     1     1     2 1   
     2     1     4 1   
     3     1     8 1   
     4     1    44 1   
     5     2     3 1   
     6     2    10 1   
     7     2    45 1   
     8     3     9 1   
     9     3    46 1   
    10     3    47 1   
    11     4     6 1   
    12     4     7 1   
    13     4    48 1   
    14     5     6 1   
    15     5    49 1   
    16     6    11 1   
    17     6    50 1   
    18     7    51 1   
    19     8    52 1   
    20     9    53 1   
    21    10    11 1   
    22    11    12 1   
    23    11    54 1   
    24    12    13 1   
    25    12    55 1   
    26    12    56 1   
    27    13    14 1   
    28    13    57 1   
    29    13    58 1   
    30    14    15 1   
    31    14    59 1   
    32    15    16 2   
    33    15    17 1   
    34    17    18 1   
    35    17    60 1   
    36    17    61 1   
    37    18    19 1   
    38    18    62 1   
    39    18    63 1   
    40    19    20 2   
    41    19    21 1   
    42    20    23 1   
    43    20    64 1   
    44    21    22 2   
    45    22    23 1   
    46    23    24 1   
    47    24    25 1   
    48    24    28 1   
    49    24    29 1   
    50    25    26 1   
    51    25    27 1   
    52    28    37 1   
    53    29    30 1   
    54    29    65 1   
    55    29    66 1   
    56    30    31 1   
    57    30    32 1   
    58    30    67 1   
    59    31    68 1   
    60    32    33 1   
    61    32    37 1   
    62    32    69 1   
    63    33    34 1   
    64    33    70 1   
    65    34    35 2   
    66    34    36 1   
    67    36    71 1   
    68    36    72 1   
    69    36    73 1   
    70    37    38 1   
    71    37    74 1   
    72    38    39 1   
    73    38    40 1   
    74    38    75 1   
    75    39    76 1   
    76    40    41 1   
    77    40    42 1   
    78    40    77 1   
    79    41    78 1   
    80    42    43 1   
    81    42    79 1   
    82    42    80 1   
    83    43    81 1   
@<TRIPOS>SUBSTRUCTURE
     1 7BN         1 TEMP              0 ****  ****    0 ROOT
