@<TRIPOS>MOLECULE
7BN
   81    83     1     0     0
SMALL
No Charge or Current Charge


@<TRIPOS>ATOM
      1 C4          21.6420     7.9230    20.2370 c6         1 7BN       0.117300
      2 C5          22.4100     6.5730    20.4500 c6         1 7BN       0.171300
      3 C6          21.4610     5.3270    20.4200 c3         1 7BN       0.173600
      4 C3          22.6700     9.0930    20.2140 c6         1 7BN       0.090300
      5 O2          24.7520     9.8970    19.2180 oh         1 7BN      -0.712000
      6 C2          23.7990     8.8190    19.1710 c6         1 7BN       0.143300
      7 O3          22.0080    10.3410    19.9130 oh         1 7BN      -0.680000
      8 O4          20.8880     7.9560    19.0100 oh         1 7BN      -0.709000
      9 O6          22.1550     4.0670    20.5280 oh         1 7BN      -0.702000
     10 O5          23.4390     6.3970    19.4420 os         1 7BN      -0.427000
     11 C1          24.4550     7.4270    19.4490 c6         1 7BN       0.179300
     12 CBQ         25.5090     7.0220    18.3810 c3         1 7BN      -0.085400
     13 CBE         26.2340     5.6950    18.6950 c3         1 7BN       0.098000
     14 NAA         27.1890     5.3060    17.6500 ns         1 7BN      -0.502900
     15 CAB         28.4100     5.9070    17.4260 c          1 7BN       0.592100
     16 OAD         28.7900     6.8810    18.0580 o          1 7BN      -0.610100
     17 CAC         29.2440     5.2720    16.3040 c3         1 7BN      -0.154400
     18 CAE         30.5330     4.6000    16.8450 c3         1 7BN      -0.068700
     19 CAF         30.2900     3.6520    17.9930 cc         1 7BN       0.166300
     20 CAH         29.2830     2.7500    18.1390 cd         1 7BN      -0.162000
     21 NAG         31.1050     3.6440    19.0890 nc         1 7BN      -0.392000
     22 NAJ         30.6370     2.7760    19.9490 nd         1 7BN      -0.209800
     23 NAI         29.5070     2.2230    19.3930 na         1 7BN       0.156800
     24 CAR         28.6480     1.2430    20.1090 c6         1 7BN       0.166000
     25 CBA         28.1520     1.9590    21.4300 c          1 7BN       0.708000
     26 OBC         27.1270     2.6350    21.3550 o          1 7BN      -0.677500
     27 OBB         28.6750     1.6630    22.4980 o          1 7BN      -0.677500
     28 OAS         27.5200     0.9320    19.2390 os         1 7BN      -0.458000
     29 CAQ         29.4450    -0.0880    20.3270 c6         1 7BN      -0.114400
     30 CAP         28.5240    -1.2470    20.8020 c6         1 7BN       0.161300
     31 OBD         29.2780    -2.4660    20.8700 oh         1 7BN      -0.677000
     32 CAO         27.2910    -1.4120    19.8540 c6         1 7BN       0.074700
     33 NAN         26.4010    -2.5030    20.3120 ns         1 7BN      -0.477900
     34 CAL         25.5690    -3.2430    19.5070 c          1 7BN       0.599100
     35 OAM         25.4440    -3.0060    18.3130 o          1 7BN      -0.648100
     36 CAK         24.8120    -4.3610    20.2090 c3         1 7BN      -0.172100
     37 CAT         26.5870    -0.0270    19.7930 c6         1 7BN       0.140300
     38 CAU         25.2580     0.0800    18.9730 c3         1 7BN       0.153300
     39 OAZ         25.3960    -0.4520    17.6370 oh         1 7BN      -0.739000
     40 CAV         24.7250     1.5570    18.9210 c3         1 7BN       0.187300
     41 OAY         24.6610     2.1300    20.2530 oh         1 7BN      -0.703000
     42 CAW         23.3240     1.6520    18.2410 c3         1 7BN       0.163600
     43 OAX         22.8890     3.0160    18.1030 oh         1 7BN      -0.719000
     44 H1          20.9630     8.0730    21.0900 h1         1 7BN       0.030700
     45 H2          22.8940     6.5980    21.4380 h1         1 7BN       0.058700
     46 H3          20.8900     5.3480    19.4840 h1         1 7BN       0.031200
     47 H4          20.7390     5.4290    21.2410 h1         1 7BN       0.031200
     48 H5          23.1370     9.1500    21.2100 h1         1 7BN       0.054700
     49 H6          24.1990    10.7080    19.3210 ho         1 7BN       0.507000
     50 H7          23.3430     8.7780    18.1700 h1         1 7BN       0.061700
     51 H8          21.5410    10.6300    20.7310 ho         1 7BN       0.444000
     52 H9          20.8610     8.9140    18.7700 ho         1 7BN       0.509000
     53 H10         22.6580     4.0790    21.3760 ho         1 7BN       0.500000
     54 H11         24.9420     7.4430    20.4350 h1         1 7BN       0.055700
     55 H12         26.2580     7.8160    18.2900 hc         1 7BN       0.056200
     56 H13         25.0260     6.9400    17.4000 hc         1 7BN       0.056200
     57 H14         25.4930     4.8910    18.8040 h1         1 7BN       0.086200
     58 H15         26.7690     5.7850    19.6510 h1         1 7BN       0.086200
     59 H16         26.9530     4.5240    17.0520 hn         1 7BN       0.310500
     60 H17         29.5380     6.0560    15.5970 hc         1 7BN       0.048200
     61 H18         28.6500     4.5200    15.7710 hc         1 7BN       0.048200
     62 H19         31.0280     4.0630    16.0270 hc         1 7BN       0.054700
     63 H20         31.2300     5.3860    17.1610 hc         1 7BN       0.054700
     64 H21         28.4560     2.4780    17.4990 h4         1 7BN       0.177000
     65 H23         29.9240    -0.3770    19.3810 hc         1 7BN       0.074700
     66 H24         30.2600     0.0690    21.0460 hc         1 7BN       0.074700
     67 H25         28.1480    -0.9960    21.8050 h1         1 7BN       0.050700
     68 H26         29.9680    -2.3390    21.5570 ho         1 7BN       0.445000
     69 H27         27.6590    -1.6620    18.8480 h1         1 7BN       0.098700
     70 H28         26.4670    -2.7990    21.2790 hn         1 7BN       0.315500
     71 H29         25.5310    -5.0200    20.7080 hc         1 7BN       0.057367
     72 H30         24.2560    -3.9390    21.0540 hc         1 7BN       0.057367
     73 H31         24.1560    -4.9170    19.5300 hc         1 7BN       0.057367
     74 H32         26.3290     0.2530    20.8240 h1         1 7BN       0.074700
     75 H33         24.5070    -0.5140    19.5100 h1         1 7BN       0.025700
     76 H34         25.4400    -1.4470    17.7540 ho         1 7BN       0.533000
     77 H35         25.4240     2.1420    18.3070 h1         1 7BN       0.058700
     78 H36         25.5960     2.3240    20.5450 ho         1 7BN       0.516000
     79 H37         22.5970     1.0800    18.8340 h1         1 7BN       0.023700
     80 H38         23.3750     1.1850    17.2480 h1         1 7BN       0.023700
     81 H39         22.7340     3.3560    19.0290 ho         1 7BN       0.488000
@<TRIPOS>BOND
     1     1     2 1   
     2     1     4 1   
     3     1     8 1   
     4     1    44 1   
     5     2     3 1   
     6     2    10 1   
     7     2    45 1   
     8     3     9 1   
     9     3    46 1   
    10     3    47 1   
    11     4     6 1   
    12     4     7 1   
    13     4    48 1   
    14     5     6 1   
    15     5    49 1   
    16     6    11 1   
    17     6    50 1   
    18     7    51 1   
    19     8    52 1   
    20     9    53 1   
    21    10    11 1   
    22    11    12 1   
    23    11    54 1   
    24    12    13 1   
    25    12    55 1   
    26    12    56 1   
    27    13    14 1   
    28    13    57 1   
    29    13    58 1   
    30    14    15 1   
    31    14    59 1   
    32    15    16 2   
    33    15    17 1   
    34    17    18 1   
    35    17    60 1   
    36    17    61 1   
    37    18    19 1   
    38    18    62 1   
    39    18    63 1   
    40    19    20 2   
    41    19    21 1   
    42    20    23 1   
    43    20    64 1   
    44    21    22 2   
    45    22    23 1   
    46    23    24 1   
    47    24    25 1   
    48    24    28 1   
    49    24    29 1   
    50    25    26 1   
    51    25    27 1   
    52    28    37 1   
    53    29    30 1   
    54    29    65 1   
    55    29    66 1   
    56    30    31 1   
    57    30    32 1   
    58    30    67 1   
    59    31    68 1   
    60    32    33 1   
    61    32    37 1   
    62    32    69 1   
    63    33    34 1   
    64    33    70 1   
    65    34    35 2   
    66    34    36 1   
    67    36    71 1   
    68    36    72 1   
    69    36    73 1   
    70    37    38 1   
    71    37    74 1   
    72    38    39 1   
    73    38    40 1   
    74    38    75 1   
    75    39    76 1   
    76    40    41 1   
    77    40    42 1   
    78    40    77 1   
    79    41    78 1   
    80    42    43 1   
    81    42    79 1   
    82    42    80 1   
    83    43    81 1   
@<TRIPOS>SUBSTRUCTURE
     1 7BN         1 TEMP              0 ****  ****    0 ROOT
