@<TRIPOS>MOLECULE
7BP
   43    44     1     0     0
SMALL
bcc


@<TRIPOS>ATOM
      1 C1          -2.7620    -2.1500     1.0290 c3         1 7BP      -0.086100
      2 C2          -4.0110    -1.3140     0.7370 c3         1 7BP      -0.035000
      3 C3          -4.6050    -0.8330     2.0640 c3         1 7BP      -0.086100
      4 C5          -3.7160    -0.0890    -0.1470 c5         1 7BP      -0.066700
      5 C7          -2.7320     0.9300     0.4420 c5         1 7BP       0.098000
      6 C10         -0.0540     2.4590     0.1710 c3         1 7BP       0.112400
      7 C12          1.7080     0.8650     0.1430 ca         1 7BP       0.128100
      8 C13          2.3130     1.3950     1.2830 ca         1 7BP      -0.176000
      9 C14          3.4320     0.7870     1.8370 ca         1 7BP      -0.136000
     10 C15          3.9460    -0.3460     1.2540 ca         1 7BP       0.133900
     11 C21         -2.3180     0.8560    -1.8630 c          1 7BP       0.711500
     12 C23         -3.1380    -0.3710    -1.5340 c5         1 7BP      -0.165400
     13 C4          -5.0380    -2.1900     0.0180 c3         1 7BP      -0.086100
     14 N8          -2.1630     1.5670    -0.7270 n          1 7BP      -0.481800
     15 C9          -1.3210     2.7270    -0.6170 c3         1 7BP       0.108000
     16 O11          0.6280     1.3900    -0.4570 os         1 7BP      -0.304900
     17 F16          5.0180    -0.9510     1.7710 f          1 7BP      -0.126900
     18 C17          3.3590    -0.8880     0.1160 ca         1 7BP      -0.021000
     19 C18          3.9110    -2.0650    -0.4680 cg         1 7BP       0.235800
     20 N19          4.3530    -3.0170    -0.9430 n1         1 7BP      -0.342800
     21 C20          2.2370    -0.2830    -0.4400 ca         1 7BP      -0.102000
     22 O22         -1.8720     1.1530    -2.9580 o          1 7BP      -0.620500
     23 H24         -3.0310    -3.0160     1.6370 hc         1 7BP       0.035922
     24 H25         -2.2910    -2.5310     0.1220 hc         1 7BP       0.035922
     25 H26         -2.0090    -1.5900     1.5860 hc         1 7BP       0.035922
     26 H29         -3.8830    -0.2570     2.6470 hc         1 7BP       0.035922
     27 H27         -5.4820    -0.2030     1.9010 hc         1 7BP       0.035922
     28 H28         -4.9150    -1.6800     2.6790 hc         1 7BP       0.035922
     29 H6          -4.6690     0.4330    -0.2900 hc         1 7BP       0.057700
     30 H33         -3.2250     1.6660     1.0790 h1         1 7BP       0.044200
     31 H34         -1.9510     0.4480     1.0410 h1         1 7BP       0.044200
     32 H38          0.5560     3.3690     0.1830 h1         1 7BP       0.039200
     33 H37         -0.2910     2.2050     1.2100 h1         1 7BP       0.039200
     34 H39          1.9350     2.2890     1.7590 ha         1 7BP       0.142000
     35 H40          3.8970     1.2030     2.7200 ha         1 7BP       0.155000
     36 H42         -2.4700    -1.2380    -1.5430 hc         1 7BP       0.078700
     37 H43         -3.8950    -0.5450    -2.2980 hc         1 7BP       0.078700
     38 H30         -5.3110    -3.0540     0.6280 hc         1 7BP       0.035922
     39 H31         -5.9530    -1.6330    -0.1960 hc         1 7BP       0.035922
     40 H32         -4.6510    -2.5700    -0.9300 hc         1 7BP       0.035922
     41 H36         -1.8610     3.5330    -0.1150 h1         1 7BP       0.071700
     42 H35         -1.0770     3.0750    -1.6200 h1         1 7BP       0.071700
     43 H41          1.7760    -0.7040    -1.3230 ha         1 7BP       0.166000
@<TRIPOS>BOND
     1     1     2 1   
     2     1    23 1   
     3     1    24 1   
     4     1    25 1   
     5     2     3 1   
     6     2     4 1   
     7     2    13 1   
     8     3    26 1   
     9     3    27 1   
    10     3    28 1   
    11     4     5 1   
    12     4    12 1   
    13     4    29 1   
    14     5    14 1   
    15     5    30 1   
    16     5    31 1   
    17     6    15 1   
    18     6    16 1   
    19     6    32 1   
    20     6    33 1   
    21     7     8 ar  
    22     7    16 1   
    23     7    21 ar  
    24     8     9 ar  
    25     8    34 1   
    26     9    10 ar  
    27     9    35 1   
    28    10    17 1   
    29    10    18 ar  
    30    11    12 1   
    31    11    14 1   
    32    11    22 2   
    33    12    36 1   
    34    12    37 1   
    35    13    38 1   
    36    13    39 1   
    37    13    40 1   
    38    14    15 1   
    39    15    41 1   
    40    15    42 1   
    41    18    19 1   
    42    18    21 ar  
    43    19    20 3   
    44    21    43 1   
@<TRIPOS>SUBSTRUCTURE
     1 7BP         1 TEMP              0 ****  ****    0 ROOT
