@<TRIPOS>MOLECULE
7BP
   43    44     1     0     0
SMALL
No Charge or Current Charge


@<TRIPOS>ATOM
      1 C1          -3.2820    -2.6550     0.2950 c3         1 7BP      -0.086100
      2 C2          -4.1020    -1.4020     0.7170 c3         1 7BP      -0.035000
      3 C3          -3.8760    -1.1620     2.2350 c3         1 7BP      -0.086100
      4 C5          -3.7020    -0.1120    -0.0850 c5         1 7BP      -0.066700
      5 C7          -2.2120     0.3650     0.0370 c5         1 7BP       0.098000
      6 C10          0.0420     2.3870    -0.2560 c3         1 7BP       0.135600
      7 C12          1.9150     0.8820     0.3180 ca         1 7BP       0.128100
      8 C13          2.3770     1.7280     1.3510 ca         1 7BP      -0.158000
      9 C14          3.4990     1.3540     2.1140 ca         1 7BP      -0.118000
     10 C15          4.1600     0.1430     1.8520 ca         1 7BP       0.169000
     11 C21         -3.1070     1.0990    -2.0770 c          1 7BP       0.569000
     12 C23         -3.8490    -0.1560    -1.6360 c5         1 7BP      -0.165400
     13 C4          -5.6080    -1.7110     0.4960 c3         1 7BP      -0.086100
     14 N8          -2.0760     1.2400    -1.1490 n          1 7BP      -0.414800
     15 C9          -1.1330     2.3830    -1.2600 c3         1 7BP       0.108000
     16 O11          0.8200     1.1930    -0.4610 os         1 7BP      -0.328100
     17 F16          5.2370    -0.1940     2.6000 f          1 7BP      -0.162000
     18 C17          3.7050    -0.7050     0.8230 ca         1 7BP      -0.021000
     19 C18          4.3750    -1.9460     0.5470 cg         1 7BP       0.325000
     20 N19          4.9100    -2.9570     0.3130 n1         1 7BP      -0.432000
     21 C20          2.5810    -0.3280     0.0600 ca         1 7BP      -0.084000
     22 O22         -3.4310     1.9450    -2.8990 o          1 7BP      -0.545000
     23 H24         -3.5810    -3.5290     0.8870 hc         1 7BP       0.035922
     24 H25         -3.4430    -2.9060    -0.7590 hc         1 7BP       0.035922
     25 H26         -2.2080    -2.5070     0.4520 hc         1 7BP       0.035922
     26 H29         -2.8160    -0.9900     2.4570 hc         1 7BP       0.035922
     27 H27         -4.4410    -0.2890     2.5830 hc         1 7BP       0.035922
     28 H28         -4.2020    -2.0290     2.8230 hc         1 7BP       0.035922
     29 H6          -4.3470     0.6910     0.2960 hc         1 7BP       0.057700
     30 H33         -2.0370     0.9030     0.9780 h1         1 7BP       0.044200
     31 H34         -1.4980    -0.4660    -0.0270 h1         1 7BP       0.044200
     32 H38          0.6560     3.2800    -0.4260 h1         1 7BP       0.039200
     33 H37         -0.3510     2.4280     0.7680 h1         1 7BP       0.039200
     34 H39          1.8840     2.6700     1.5740 ha         1 7BP       0.124000
     35 H40          3.8580     2.0020     2.9110 ha         1 7BP       0.137000
     36 H42         -3.2930    -1.0140    -2.0270 hc         1 7BP       0.078700
     37 H43         -4.8750    -0.1690    -2.0180 hc         1 7BP       0.078700
     38 H30         -5.9250    -2.5740     1.0950 hc         1 7BP       0.035922
     39 H31         -6.2320    -0.8560     0.7830 hc         1 7BP       0.035922
     40 H32         -5.8160    -1.9440    -0.5550 hc         1 7BP       0.035922
     41 H36         -1.7020     3.3130    -1.1280 h1         1 7BP       0.071700
     42 H35         -0.7190     2.3970    -2.2770 h1         1 7BP       0.071700
     43 H41          2.2180    -0.9730    -0.7370 ha         1 7BP       0.148000
@<TRIPOS>BOND
     1     1     2 1   
     2     1    23 1   
     3     1    24 1   
     4     1    25 1   
     5     2     3 1   
     6     2     4 1   
     7     2    13 1   
     8     3    26 1   
     9     3    27 1   
    10     3    28 1   
    11     4     5 1   
    12     4    12 1   
    13     4    29 1   
    14     5    14 1   
    15     5    30 1   
    16     5    31 1   
    17     6    15 1   
    18     6    16 1   
    19     6    32 1   
    20     6    33 1   
    21     7     8 ar  
    22     7    16 1   
    23     7    21 ar  
    24     8     9 ar  
    25     8    34 1   
    26     9    10 ar  
    27     9    35 1   
    28    10    17 1   
    29    10    18 ar  
    30    11    12 1   
    31    11    14 1   
    32    11    22 2   
    33    12    36 1   
    34    12    37 1   
    35    13    38 1   
    36    13    39 1   
    37    13    40 1   
    38    14    15 1   
    39    15    41 1   
    40    15    42 1   
    41    18    19 1   
    42    18    21 ar  
    43    19    20 3   
    44    21    43 1   
@<TRIPOS>SUBSTRUCTURE
     1 7BP         1 TEMP              0 ****  ****    0 ROOT
