@<TRIPOS>MOLECULE
7BQ
   98   101     1     0     0
SMALL
abcg2


@<TRIPOS>ATOM
      1 C4          -9.1140     3.3280     0.6030 c6         1 7BQ       0.114300
      2 C5          -8.7540     2.0370    -0.1370 c6         1 7BQ       0.139300
      3 C6          -9.3230     1.9990    -1.5370 c3         1 7BQ       0.170600
      4 C3          -8.4610     3.2740     1.9820 c6         1 7BQ       0.135300
      5 O2          -6.3760     2.8360     3.1320 oh         1 7BQ      -0.719000
      6 C2          -6.9600     3.0280     1.8660 c6         1 7BQ       0.144300
      7 O3          -8.6460     4.4530     2.7270 oh         1 7BQ      -0.649000
      8 O4          -8.6580     4.4780    -0.0690 oh         1 7BQ      -0.689000
      9 O6          -9.1260     0.7150    -2.0800 oh         1 7BQ      -0.699000
     10 O5          -7.3550     1.8890    -0.2180 os         1 7BQ      -0.422000
     11 C1          -6.7250     1.7640     1.0370 c6         1 7BQ       0.177300
     12 CBQ         -5.2530     1.4820     0.7950 c3         1 7BQ      -0.082400
     13 CBE         -5.0420     0.2100    -0.0130 c3         1 7BQ       0.104000
     14 NAA         -3.6280    -0.0860    -0.1180 ns         1 7BQ      -0.504900
     15 C           -3.1080    -0.8320    -1.1000 c          1 7BQ       0.610100
     16 O           -3.7760    -1.2920    -2.0130 o          1 7BQ      -0.606100
     17 CA          -1.5840    -1.0130    -1.0940 c3         1 7BQ       0.044700
     18 N           -1.2520    -2.3340    -1.5600 ns         1 7BQ      -0.480900
     19 CBS         -1.6770    -3.4380    -0.9240 c          1 7BQ       0.617100
     20 OBV         -2.4660    -3.3910     0.0060 o          1 7BQ      -0.609100
     21 CBT         -1.1350    -4.7440    -1.4720 c3         1 7BQ      -0.112100
     22 CBU         -1.0700    -5.8160    -0.4240 ca         1 7BQ      -0.057300
     23 CBW         -1.8690    -6.9510    -0.5040 ca         1 7BQ      -0.093000
     24 CBX         -1.7900    -7.9450     0.4650 ca         1 7BQ      -0.118000
     25 CBY         -0.9110    -7.8110     1.5290 ca         1 7BQ      -0.119000
     26 CBZ         -0.1110    -6.6760     1.6190 ca         1 7BQ      -0.118000
     27 CCA         -0.1910    -5.6880     0.6500 ca         1 7BQ      -0.093000
     28 CB          -0.8650    -0.6730     0.2250 c3         1 7BQ      -0.104700
     29 CG           0.5910    -0.9640     0.1370 cc         1 7BQ       0.147300
     30 CD1          1.6100    -0.1620    -0.3060 cd         1 7BQ      -0.165000
     31 ND2          1.1260    -2.1640     0.4620 nc         1 7BQ      -0.392000
     32 NAJ          2.3970    -2.1370     0.2500 nd         1 7BQ      -0.214800
     33 NAI          2.7060    -0.9400    -0.2120 na         1 7BQ       0.172800
     34 CAR          4.0610    -0.5700    -0.6040 c6         1 7BQ       0.169000
     35 CBA          4.0070    -0.3800    -2.1690 c          1 7BQ       0.703000
     36 OBC          4.2490    -1.3990    -2.8330 o          1 7BQ      -0.677000
     37 OBB          3.6770     0.7450    -2.5640 o          1 7BQ      -0.677000
     38 OAS          4.2830     0.6330     0.0770 os         1 7BQ      -0.484000
     39 CAQ          5.0710    -1.6130    -0.1520 c6         1 7BQ      -0.118400
     40 CAP          6.4830    -1.0860    -0.3900 c6         1 7BQ       0.156300
     41 OBD          7.4570    -1.9690     0.1080 oh         1 7BQ      -0.662000
     42 CAO          6.6640     0.2540     0.3150 c6         1 7BQ       0.073700
     43 NAN          7.9520     0.8270     0.0120 ns         1 7BQ      -0.493900
     44 CAL          8.9580     0.9600     0.8960 c          1 7BQ       0.606100
     45 OAM          8.8580     0.6760     2.0810 o          1 7BQ      -0.603100
     46 CAK         10.2460     1.4970     0.3190 c3         1 7BQ      -0.181100
     47 CAT          5.5520     1.2220    -0.1150 c6         1 7BQ       0.157300
     48 CAU          5.5390     2.5030     0.7180 c3         1 7BQ       0.150300
     49 OAZ          5.2140     2.2300     2.0600 oh         1 7BQ      -0.719000
     50 CAV          4.6230     3.5730     0.0930 c3         1 7BQ       0.136300
     51 OAY          5.1010     3.9380    -1.1820 oh         1 7BQ      -0.617000
     52 CAW          4.4830     4.7790     1.0090 c3         1 7BQ       0.126600
     53 OAX          3.6430     5.7230     0.3850 oh         1 7BQ      -0.707000
     54 H1         -10.2050     3.3530     0.7350 h1         1 7BQ       0.026700
     55 H2          -9.1900     1.2010     0.4360 h1         1 7BQ       0.048700
     56 H3         -10.3900     2.2530    -1.4740 h1         1 7BQ       0.021700
     57 H4          -8.8420     2.7720    -2.1490 h1         1 7BQ       0.021700
     58 H5          -8.8970     2.4100     2.5070 h1         1 7BQ       0.039700
     59 H6          -6.6470     3.5700     3.6940 ho         1 7BQ       0.517000
     60 H7          -6.4960     3.8770     1.3440 h1         1 7BQ       0.075700
     61 H8          -9.5340     4.4510     3.0970 ho         1 7BQ       0.442000
     62 H9          -9.3000     4.7220    -0.7410 ho         1 7BQ       0.498000
     63 H10         -9.4490     0.7230    -2.9850 ho         1 7BQ       0.504000
     64 H11         -7.1620     0.9130     1.5880 h1         1 7BQ       0.041700
     65 H12         -4.7910     2.3300     0.2820 hc         1 7BQ       0.060700
     66 H13         -4.7580     1.3870     1.7650 hc         1 7BQ       0.060700
     67 H14         -5.5710    -0.6260     0.4590 h1         1 7BQ       0.059700
     68 H15         -5.4500     0.3220    -1.0150 h1         1 7BQ       0.059700
     69 H16         -3.0490     0.1820     0.6600 hn         1 7BQ       0.313500
     70 H17         -1.2140    -0.3220    -1.8570 h1         1 7BQ       0.075700
     71 H18         -0.5580    -2.4190    -2.2830 hn         1 7BQ       0.330500
     72 H19         -1.7890    -5.0530    -2.2930 hc         1 7BQ       0.066200
     73 H20         -0.1480    -4.5850    -1.9150 hc         1 7BQ       0.066200
     74 H21         -2.5590    -7.0640    -1.3320 ha         1 7BQ       0.125500
     75 H22         -2.4180    -8.8230     0.3860 ha         1 7BQ       0.104000
     76 H23         -0.8460    -8.5830     2.2840 ha         1 7BQ       0.099000
     77 H24          0.5770    -6.5630     2.4480 ha         1 7BQ       0.104000
     78 H25          0.4280    -4.8000     0.7280 ha         1 7BQ       0.125500
     79 H26         -0.9980     0.3880     0.4450 hc         1 7BQ       0.057700
     80 H27         -1.2970    -1.2410     1.0490 hc         1 7BQ       0.057700
     81 H28          1.6370     0.8530    -0.6600 h4         1 7BQ       0.187000
     82 H30          4.9420    -1.8120     0.9150 hc         1 7BQ       0.072700
     83 H31          4.9230    -2.5500    -0.6870 hc         1 7BQ       0.072700
     84 H32          6.6250    -0.9260    -1.4700 h1         1 7BQ       0.052700
     85 H33          7.4450    -2.7670    -0.4310 ho         1 7BQ       0.443000
     86 H34          6.6100     0.0970     1.3940 h1         1 7BQ       0.108700
     87 H35          8.1400     1.0490    -0.9530 hn         1 7BQ       0.306500
     88 H36         10.1670     1.8020    -0.7230 hc         1 7BQ       0.052033
     89 H37         10.5780     2.3530     0.9060 hc         1 7BQ       0.052033
     90 H38         11.0180     0.7320     0.3940 hc         1 7BQ       0.052033
     91 H39          5.6990     1.4860    -1.1690 h1         1 7BQ       0.085700
     92 H40          6.5570     2.9100     0.7320 h1         1 7BQ       0.062700
     93 H41          4.3730     1.7570     2.0750 ho         1 7BQ       0.520000
     94 H42          3.6300     3.1440    -0.0770 h1         1 7BQ       0.110700
     95 H43          5.9450     4.3910    -1.0740 ho         1 7BQ       0.419000
     96 H44          4.0760     4.4570     1.9720 h1         1 7BQ       0.021700
     97 H45          5.4820     5.1970     1.2090 h1         1 7BQ       0.021700
     98 H46          3.5070     6.4480     1.0010 ho         1 7BQ       0.490000
@<TRIPOS>BOND
     1     1     2 1   
     2     1     4 1   
     3     1     8 1   
     4     1    54 1   
     5     2     3 1   
     6     2    10 1   
     7     2    55 1   
     8     3     9 1   
     9     3    56 1   
    10     3    57 1   
    11     4     6 1   
    12     4     7 1   
    13     4    58 1   
    14     5     6 1   
    15     5    59 1   
    16     6    11 1   
    17     6    60 1   
    18     7    61 1   
    19     8    62 1   
    20     9    63 1   
    21    10    11 1   
    22    11    12 1   
    23    11    64 1   
    24    12    13 1   
    25    12    65 1   
    26    12    66 1   
    27    13    14 1   
    28    13    67 1   
    29    13    68 1   
    30    14    15 1   
    31    14    69 1   
    32    15    16 2   
    33    15    17 1   
    34    17    18 1   
    35    17    28 1   
    36    17    70 1   
    37    18    19 1   
    38    18    71 1   
    39    19    20 2   
    40    19    21 1   
    41    21    22 1   
    42    21    72 1   
    43    21    73 1   
    44    22    23 ar  
    45    22    27 ar  
    46    23    24 ar  
    47    23    74 1   
    48    24    25 ar  
    49    24    75 1   
    50    25    26 ar  
    51    25    76 1   
    52    26    27 ar  
    53    26    77 1   
    54    27    78 1   
    55    28    29 1   
    56    28    79 1   
    57    28    80 1   
    58    29    30 2   
    59    29    31 1   
    60    30    33 1   
    61    30    81 1   
    62    31    32 2   
    63    32    33 1   
    64    33    34 1   
    65    34    35 1   
    66    34    38 1   
    67    34    39 1   
    68    35    36 1   
    69    35    37 1   
    70    38    47 1   
    71    39    40 1   
    72    39    82 1   
    73    39    83 1   
    74    40    41 1   
    75    40    42 1   
    76    40    84 1   
    77    41    85 1   
    78    42    43 1   
    79    42    47 1   
    80    42    86 1   
    81    43    44 1   
    82    43    87 1   
    83    44    45 2   
    84    44    46 1   
    85    46    88 1   
    86    46    89 1   
    87    46    90 1   
    88    47    48 1   
    89    47    91 1   
    90    48    49 1   
    91    48    50 1   
    92    48    92 1   
    93    49    93 1   
    94    50    51 1   
    95    50    52 1   
    96    50    94 1   
    97    51    95 1   
    98    52    53 1   
    99    52    96 1   
   100    52    97 1   
   101    53    98 1   
@<TRIPOS>SUBSTRUCTURE
     1 7BQ         1 TEMP              0 ****  ****    0 ROOT
