@<TRIPOS>MOLECULE
7BQ
   98   101     1     0     0
SMALL
No Charge or Current Charge


@<TRIPOS>ATOM
      1 C4          -8.9650     4.0750     0.9020 c6         1 7BQ       0.114300
      2 C5          -8.6980     2.9630    -0.1690 c6         1 7BQ       0.139300
      3 C6          -9.0440     3.4100    -1.6280 c3         1 7BQ       0.170600
      4 C3          -8.5820     3.5030     2.3000 c6         1 7BQ       0.135300
      5 O2          -6.8050     2.3970     3.5860 oh         1 7BQ      -0.719000
      6 C2          -7.1140     2.9670     2.2970 c6         1 7BQ       0.144300
      7 O3          -8.7390     4.5210     3.3030 oh         1 7BQ      -0.649000
      8 O4          -8.2060     5.2840     0.6610 oh         1 7BQ      -0.689000
      9 O6          -8.8510     2.3640    -2.5990 oh         1 7BQ      -0.699000
     10 O5          -7.3120     2.5360    -0.1240 os         1 7BQ      -0.422000
     11 C1          -6.9270     1.9370     1.1350 c6         1 7BQ       0.177300
     12 CBQ         -5.4570     1.4570     0.9800 c3         1 7BQ      -0.082400
     13 CBE         -5.2500     0.4250    -0.1460 c3         1 7BQ       0.104000
     14 NAA         -3.8590    -0.0300    -0.2170 ns         1 7BQ      -0.504900
     15 C           -3.4360    -1.1340    -0.9300 c          1 7BQ       0.610100
     16 O           -4.2300    -1.8050    -1.5800 o          1 7BQ      -0.606100
     17 CA          -1.9010    -1.4410    -0.8630 c3         1 7BQ       0.044700
     18 N           -1.5800    -2.7640    -1.4550 ns         1 7BQ      -0.480900
     19 CBS         -1.9340    -3.9890    -0.9230 c          1 7BQ       0.617100
     20 OBV         -2.6010    -4.1030     0.0960 o          1 7BQ      -0.609100
     21 CBT         -1.4340    -5.2040    -1.7140 c3         1 7BQ      -0.112100
     22 CBU         -0.2420    -5.8520    -1.0160 ca         1 7BQ      -0.057300
     23 CBW         -0.4120    -7.0200    -0.2460 ca         1 7BQ      -0.093000
     24 CBX          0.6900    -7.6120     0.3960 ca         1 7BQ      -0.118000
     25 CBY          1.9670    -7.0400     0.2740 ca         1 7BQ      -0.119000
     26 CBZ          2.1420    -5.8750    -0.4910 ca         1 7BQ      -0.118000
     27 CCA          1.0410    -5.2830    -1.1340 ca         1 7BQ      -0.093000
     28 CB          -1.2640    -1.2460     0.5440 c3         1 7BQ      -0.104700
     29 CG           0.2110    -1.5510     0.5750 cc         1 7BQ       0.147300
     30 CD1          1.2110    -0.8840    -0.0610 cd         1 7BQ      -0.165000
     31 ND2          0.7110    -2.5920     1.3020 nc         1 7BQ      -0.392000
     32 NAJ          2.0100    -2.6220     1.1420 nd         1 7BQ      -0.214800
     33 NAI          2.3440    -1.5810     0.3010 na         1 7BQ       0.172800
     34 CAR          3.7410    -1.2410    -0.1200 c6         1 7BQ       0.169000
     35 CBA          3.9130    -1.6290    -1.6610 c          1 7BQ       0.703000
     36 OBC          3.1600    -2.4870    -2.1070 o          1 7BQ      -0.677000
     37 OBB          4.3460    -0.7730    -2.4230 o          1 7BQ      -0.677000
     38 OAS          3.8750     0.1940     0.1890 os         1 7BQ      -0.484000
     39 CAQ          4.7850    -2.0050     0.7560 c6         1 7BQ      -0.118400
     40 CAP          6.2110    -1.4530     0.5430 c6         1 7BQ       0.156300
     41 OBD          7.1330    -2.1850     1.3650 oh         1 7BQ      -0.662000
     42 CAO          6.2590     0.0660     0.8800 c6         1 7BQ       0.073700
     43 NAN          7.6250     0.6000     0.6550 ns         1 7BQ      -0.493900
     44 CAL          8.2930     1.4860     1.4670 c          1 7BQ       0.606100
     45 OAM          7.8030     1.9450     2.4880 o          1 7BQ      -0.603100
     46 CAK          9.6940     1.8520     0.9940 c3         1 7BQ      -0.181100
     47 CAT          5.1900     0.8100     0.0200 c6         1 7BQ       0.157300
     48 CAU          4.9990     2.3120     0.4290 c3         1 7BQ       0.150300
     49 OAZ          4.1580     2.3690     1.5980 oh         1 7BQ      -0.719000
     50 CAV          4.3770     3.1840    -0.7060 c3         1 7BQ       0.136300
     51 OAY          5.2420     3.2020    -1.8550 oh         1 7BQ      -0.617000
     52 CAW          4.1360     4.6600    -0.2830 c3         1 7BQ       0.126600
     53 OAX          3.7050     5.4340    -1.4190 oh         1 7BQ      -0.707000
     54 H1         -10.0410     4.3050     0.9040 h1         1 7BQ       0.026700
     55 H2          -9.3350     2.0960     0.0630 h1         1 7BQ       0.048700
     56 H3         -10.0900     3.7440    -1.6440 h1         1 7BQ       0.021700
     57 H4          -8.4190     4.2750    -1.8860 h1         1 7BQ       0.021700
     58 H5          -9.2550     2.6610     2.5200 h1         1 7BQ       0.039700
     59 H6          -7.2540     2.9860     4.2390 ho         1 7BQ       0.517000
     60 H7          -6.4420     3.8160     2.0970 h1         1 7BQ       0.075700
     61 H8          -8.5290     5.3590     2.8290 ho         1 7BQ       0.442000
     62 H9          -8.5850     5.7210    -0.1370 ho         1 7BQ       0.498000
     63 H10         -9.0230     2.7600    -3.4850 ho         1 7BQ       0.504000
     64 H11         -7.5640     1.0590     1.3180 h1         1 7BQ       0.041700
     65 H12         -4.8050     2.3200     0.7960 hc         1 7BQ       0.060700
     66 H13         -5.1200     1.0080     1.9210 hc         1 7BQ       0.060700
     67 H14         -5.9010    -0.4420     0.0330 h1         1 7BQ       0.059700
     68 H15         -5.5260     0.8660    -1.1130 h1         1 7BQ       0.059700
     69 H16         -3.1520     0.4920     0.2860 hn         1 7BQ       0.313500
     70 H17         -1.4410    -0.6880    -1.5170 h1         1 7BQ       0.075700
     71 H18         -1.0390    -2.7870    -2.3110 hn         1 7BQ       0.330500
     72 H19         -2.2540    -5.9260    -1.7950 hc         1 7BQ       0.066200
     73 H20         -1.1300    -4.8940    -2.7200 hc         1 7BQ       0.066200
     74 H21         -1.3970    -7.4690    -0.1420 ha         1 7BQ       0.125500
     75 H22          0.5530    -8.5130     0.9900 ha         1 7BQ       0.104000
     76 H23          2.8190    -7.4960     0.7720 ha         1 7BQ       0.099000
     77 H24          3.1280    -5.4260    -0.5840 ha         1 7BQ       0.104000
     78 H25          1.1860    -4.3790    -1.7200 ha         1 7BQ       0.125500
     79 H26         -1.4030    -0.2090     0.8710 hc         1 7BQ       0.057700
     80 H27         -1.7920    -1.8670     1.2770 hc         1 7BQ       0.057700
     81 H28          1.2120    -0.0190    -0.7100 h4         1 7BQ       0.187000
     82 H30          4.5240    -1.9100     1.8190 hc         1 7BQ       0.072700
     83 H31          4.7550    -3.0770     0.5180 hc         1 7BQ       0.072700
     84 H32          6.4820    -1.5810    -0.5160 h1         1 7BQ       0.052700
     85 H33          7.1610    -3.1050     1.0200 ho         1 7BQ       0.443000
     86 H34          6.0000     0.1910     1.9420 h1         1 7BQ       0.108700
     87 H35          8.1420     0.2600    -0.1480 hn         1 7BQ       0.306500
     88 H36          9.6350     2.2370    -0.0310 hc         1 7BQ       0.052033
     89 H37         10.1960     2.5600     1.6630 hc         1 7BQ       0.052033
     90 H38         10.2780     0.9340     0.8640 hc         1 7BQ       0.052033
     91 H39          5.5010     0.7750    -1.0310 h1         1 7BQ       0.085700
     92 H40          5.9830     2.7420     0.6560 h1         1 7BQ       0.062700
     93 H41          3.6040     1.5520     1.5210 ho         1 7BQ       0.520000
     94 H42          3.4030     2.7490    -0.9740 h1         1 7BQ       0.110700
     95 H43          4.9950     4.0310    -2.3250 ho         1 7BQ       0.419000
     96 H44          3.3730     4.6920     0.5060 h1         1 7BQ       0.021700
     97 H45          5.0640     5.0760     0.1310 h1         1 7BQ       0.021700
     98 H46          3.5010     6.3420    -1.0900 ho         1 7BQ       0.490000
@<TRIPOS>BOND
     1     1     2 1   
     2     1     4 1   
     3     1     8 1   
     4     1    54 1   
     5     2     3 1   
     6     2    10 1   
     7     2    55 1   
     8     3     9 1   
     9     3    56 1   
    10     3    57 1   
    11     4     6 1   
    12     4     7 1   
    13     4    58 1   
    14     5     6 1   
    15     5    59 1   
    16     6    11 1   
    17     6    60 1   
    18     7    61 1   
    19     8    62 1   
    20     9    63 1   
    21    10    11 1   
    22    11    12 1   
    23    11    64 1   
    24    12    13 1   
    25    12    65 1   
    26    12    66 1   
    27    13    14 1   
    28    13    67 1   
    29    13    68 1   
    30    14    15 1   
    31    14    69 1   
    32    15    16 2   
    33    15    17 1   
    34    17    18 1   
    35    17    28 1   
    36    17    70 1   
    37    18    19 1   
    38    18    71 1   
    39    19    20 2   
    40    19    21 1   
    41    21    22 1   
    42    21    72 1   
    43    21    73 1   
    44    22    23 ar  
    45    22    27 ar  
    46    23    24 ar  
    47    23    74 1   
    48    24    25 ar  
    49    24    75 1   
    50    25    26 ar  
    51    25    76 1   
    52    26    27 ar  
    53    26    77 1   
    54    27    78 1   
    55    28    29 1   
    56    28    79 1   
    57    28    80 1   
    58    29    30 2   
    59    29    31 1   
    60    30    33 1   
    61    30    81 1   
    62    31    32 2   
    63    32    33 1   
    64    33    34 1   
    65    34    35 1   
    66    34    38 1   
    67    34    39 1   
    68    35    36 1   
    69    35    37 1   
    70    38    47 1   
    71    39    40 1   
    72    39    82 1   
    73    39    83 1   
    74    40    41 1   
    75    40    42 1   
    76    40    84 1   
    77    41    85 1   
    78    42    43 1   
    79    42    47 1   
    80    42    86 1   
    81    43    44 1   
    82    43    87 1   
    83    44    45 2   
    84    44    46 1   
    85    46    88 1   
    86    46    89 1   
    87    46    90 1   
    88    47    48 1   
    89    47    91 1   
    90    48    49 1   
    91    48    50 1   
    92    48    92 1   
    93    49    93 1   
    94    50    51 1   
    95    50    52 1   
    96    50    94 1   
    97    51    95 1   
    98    52    53 1   
    99    52    96 1   
   100    52    97 1   
   101    53    98 1   
@<TRIPOS>SUBSTRUCTURE
     1 7BQ         1 TEMP              0 ****  ****    0 ROOT
