@<TRIPOS>MOLECULE
7BR
   50    52     1     0     0
SMALL
abcg2


@<TRIPOS>ATOM
      1 C1          27.7000    -0.1540    -0.3870 c3         1 7BR      -0.086100
      2 C2          27.4390     0.0530    -1.8850 c6         1 7BR      -0.041000
      3 C3          28.5230    -0.6630    -2.7220 c6         1 7BR      -0.052400
      4 C8          25.8370    -1.9790    -2.1070 c6         1 7BR      -0.306400
      5 C10         27.4850     1.5480    -2.2790 c5         1 7BR      -0.070700
      6 C12         26.4120     2.4450    -1.6310 c5         1 7BR       0.102000
      7 C15         25.5560     5.5320    -2.4730 c3         1 7BR       0.143600
      8 C19         23.1150     7.8510    -5.0370 ca         1 7BR      -0.114000
      9 C22         22.5830     9.2570    -3.1470 ca         1 7BR      -0.017000
     10 C23         21.8860    10.3780    -2.6110 cg         1 7BR       0.326000
     11 C25         23.3990     8.4730    -2.3310 ca         1 7BR      -0.084000
     12 C26         28.3730     3.7400    -1.8010 c          1 7BR       0.559000
     13 C28         28.7950     2.2980    -1.9980 c5         1 7BR      -0.162400
     14 C4          28.5440    -2.1870    -2.6020 c6         1 7BR      -0.306400
     15 S5          26.9900    -2.8940    -3.1120 s6         1 7BR       1.107000
     16 O6          26.7600    -2.5610    -4.5110 o          1 7BR      -0.523000
     17 O7          26.9470    -4.3010    -2.7450 o          1 7BR      -0.523000
     18 C9          26.0350    -0.4710    -2.2650 c6         1 7BR      -0.052400
     19 N13         27.0320     3.7660    -1.6270 n          1 7BR      -0.426800
     20 O16         24.8430     6.6770    -1.9990 os         1 7BR      -0.350100
     21 C17         24.0740     7.3780    -2.8660 ca         1 7BR       0.128100
     22 C18         23.9290     7.0690    -4.2210 ca         1 7BR      -0.151000
     23 C20         22.4540     8.9310    -4.4990 ca         1 7BR       0.167000
     24 F21         21.6640     9.6960    -5.2810 f          1 7BR      -0.165000
     25 N24         21.3220    11.2840    -2.1760 n1         1 7BR      -0.430000
     26 O27         29.1150     4.7200    -1.7740 o          1 7BR      -0.543000
     27 H30         26.9650     0.3750     0.2210 hc         1 7BR       0.040367
     28 H31         27.6460    -1.2060    -0.1100 hc         1 7BR       0.040367
     29 H29         28.6920     0.2000    -0.1050 hc         1 7BR       0.040367
     30 H32         28.3960    -0.3960    -3.7740 hc         1 7BR       0.061950
     31 H33         29.5090    -0.3020    -2.4220 hc         1 7BR       0.061950
     32 H11         27.3160     1.5900    -3.3590 hc         1 7BR       0.063700
     33 H40         25.4850     2.4580    -2.2030 h1         1 7BR       0.049700
     34 H41         26.1740     2.1490    -0.6060 h1         1 7BR       0.049700
     35 H43         27.0050     5.6980    -0.8950 h1         1 7BR       0.073700
     36 H42         25.5870     4.7210    -0.4800 h1         1 7BR       0.073700
     37 H44         26.2640     5.8240    -3.2530 h1         1 7BR       0.045200
     38 H45         24.8560     4.8000    -2.8840 h1         1 7BR       0.045200
     39 H47         22.9970     7.6190    -6.0870 ha         1 7BR       0.139000
     40 H48         23.5110     8.7120    -1.2830 ha         1 7BR       0.144000
     41 H49         29.2780     1.9700    -1.0740 hc         1 7BR       0.081700
     42 H50         29.5280     2.2220    -2.7980 hc         1 7BR       0.081700
     43 H38         25.2830     0.0170    -1.6430 hc         1 7BR       0.061950
     44 H39         25.8200    -0.1950    -3.2990 hc         1 7BR       0.061950
     45 H46         24.4440     6.2250    -4.6550 ha         1 7BR       0.126000
     46 H37         24.8480    -2.2940    -2.4400 h1         1 7BR       0.105450
     47 H34         28.7180    -2.5350    -1.5850 h1         1 7BR       0.105450
     48 H35         29.2940    -2.6320    -3.2580 h1         1 7BR       0.105450
     49 H36         25.9870    -2.3230    -1.0840 h1         1 7BR       0.105450
     50 C14         26.2980     4.9600    -1.2730 c3         1 7BR       0.107000
@<TRIPOS>BOND
     1     1     2 1   
     2     1    27 1   
     3     1    28 1   
     4     1    29 1   
     5     2     3 1   
     6     2     5 1   
     7     2    18 1   
     8     3    14 1   
     9     3    30 1   
    10     3    31 1   
    11     4    15 1   
    12     4    18 1   
    13     4    46 1   
    14     4    49 1   
    15     5     6 1   
    16     5    13 1   
    17     5    32 1   
    18     6    19 1   
    19     6    33 1   
    20     6    34 1   
    21     7    20 1   
    22     7    37 1   
    23     7    38 1   
    24     7    50 1   
    25     8    22 ar  
    26     8    23 ar  
    27     8    39 1   
    28     9    10 1   
    29     9    11 ar  
    30     9    23 ar  
    31    10    25 3   
    32    11    21 ar  
    33    11    40 1   
    34    12    13 1   
    35    12    19 1   
    36    12    26 2   
    37    13    41 1   
    38    13    42 1   
    39    14    15 1   
    40    14    47 1   
    41    14    48 1   
    42    15    16 2   
    43    15    17 2   
    44    18    43 1   
    45    18    44 1   
    46    19    50 1   
    47    20    21 1   
    48    21    22 ar  
    49    22    45 1   
    50    23    24 1   
    51    35    50 1   
    52    36    50 1   
@<TRIPOS>SUBSTRUCTURE
     1 7BR         1 TEMP              0 ****  ****    0 ROOT
