@<TRIPOS>MOLECULE
7BR
   50    52     1     0     0
SMALL
No Charge or Current Charge


@<TRIPOS>ATOM
      1 C1          27.7390    -0.3750    -0.4000 c3         1 7BR      -0.086100
      2 C2          27.4340     0.0870    -1.8680 c6         1 7BR      -0.041000
      3 C3          28.4790    -0.5460    -2.8540 c6         1 7BR      -0.052400
      4 C8          25.7520    -1.8870    -2.3260 c6         1 7BR      -0.306400
      5 C10         27.5230     1.6560    -2.0030 c5         1 7BR      -0.070700
      6 C12         26.5470     2.5130    -1.1220 c5         1 7BR       0.102000
      7 C15         25.5960     5.4790    -2.2600 c3         1 7BR       0.143600
      8 C19         22.9300     7.4150    -5.0450 ca         1 7BR      -0.114000
      9 C22         22.6100     9.2040    -3.4170 ca         1 7BR      -0.017000
     10 C23         22.0070    10.4490    -3.0310 cg         1 7BR       0.326000
     11 C25         23.4870     8.5440    -2.5330 ca         1 7BR      -0.084000
     12 C26         28.5110     3.8220    -1.6250 c          1 7BR       0.559000
     13 C28         28.8790     2.3440    -1.6480 c5         1 7BR      -0.162400
     14 C4          28.4350    -2.0980    -2.9430 c6         1 7BR      -0.306400
     15 S5          26.8350    -2.7380    -3.5020 s6         1 7BR       1.107000
     16 O6          26.5650    -2.2270    -4.8530 o          1 7BR      -0.523000
     17 O7          26.7820    -4.1810    -3.2400 o          1 7BR      -0.523000
     18 C9          25.9830    -0.3500    -2.2780 c6         1 7BR      -0.052400
     19 N13         27.1870     3.8420    -1.1860 n          1 7BR      -0.426800
     20 O16         24.9340     6.7270    -1.9870 os         1 7BR      -0.350100
     21 C17         24.0860     7.3250    -2.8970 ca         1 7BR       0.128100
     22 C18         23.8050     6.7580    -4.1600 ca         1 7BR      -0.151000
     23 C20         22.3350     8.6330    -4.6760 ca         1 7BR       0.167000
     24 F21         21.4970     9.2460    -5.5450 f          1 7BR      -0.165000
     25 N24         21.5230    11.4610    -2.7050 n1         1 7BR      -0.430000
     26 O27         29.1070     4.7790    -2.0970 o          1 7BR      -0.543000
     27 H30         27.0380     0.0620     0.3200 hc         1 7BR       0.040367
     28 H31         27.6680    -1.4610    -0.2780 hc         1 7BR       0.040367
     29 H29         28.7510    -0.0970    -0.0880 hc         1 7BR       0.040367
     30 H32         28.3360    -0.1290    -3.8620 hc         1 7BR       0.061950
     31 H33         29.4940    -0.2500    -2.5560 hc         1 7BR       0.061950
     32 H11         27.3010     1.8660    -3.0580 hc         1 7BR       0.063700
     33 H40         25.5260     2.5230    -1.5270 h1         1 7BR       0.049700
     34 H41         26.5040     2.1670    -0.0810 h1         1 7BR       0.049700
     35 H43         27.1680     5.9320    -0.8420 h1         1 7BR       0.073700
     36 H42         25.8020     5.0420    -0.1550 h1         1 7BR       0.073700
     37 H44         26.2440     5.5660    -3.1420 h1         1 7BR       0.045200
     38 H45         24.8630     4.6820    -2.4390 h1         1 7BR       0.045200
     39 H47         22.7110     6.9830    -6.0180 ha         1 7BR       0.139000
     40 H48         23.7090     8.9730    -1.5590 ha         1 7BR       0.144000
     41 H49         29.1690     2.0690    -0.6290 hc         1 7BR       0.081700
     42 H50         29.7080     2.1530    -2.3370 hc         1 7BR       0.081700
     43 H38         25.2550     0.0830    -1.5780 hc         1 7BR       0.061950
     44 H39         25.7330     0.0750    -3.2610 hc         1 7BR       0.061950
     45 H46         24.2510     5.8170    -4.4710 ha         1 7BR       0.126000
     46 H37         24.7300    -2.1210    -2.6480 h1         1 7BR       0.105450
     47 H34         28.6300    -2.5690    -1.9730 h1         1 7BR       0.105450
     48 H35         29.1690    -2.4700    -3.6680 h1         1 7BR       0.105450
     49 H36         25.9290    -2.3580    -1.3520 h1         1 7BR       0.105450
     50 C14         26.4560     5.1190    -1.0330 c3         1 7BR       0.107000
@<TRIPOS>BOND
     1     1     2 1   
     2     1    27 1   
     3     1    28 1   
     4     1    29 1   
     5     2     3 1   
     6     2     5 1   
     7     2    18 1   
     8     3    14 1   
     9     3    30 1   
    10     3    31 1   
    11     4    15 1   
    12     4    18 1   
    13     4    46 1   
    14     4    49 1   
    15     5     6 1   
    16     5    13 1   
    17     5    32 1   
    18     6    19 1   
    19     6    33 1   
    20     6    34 1   
    21     7    20 1   
    22     7    37 1   
    23     7    38 1   
    24     7    50 1   
    25     8    22 ar  
    26     8    23 ar  
    27     8    39 1   
    28     9    10 1   
    29     9    11 ar  
    30     9    23 ar  
    31    10    25 3   
    32    11    21 ar  
    33    11    40 1   
    34    12    13 1   
    35    12    19 1   
    36    12    26 2   
    37    13    41 1   
    38    13    42 1   
    39    14    15 1   
    40    14    47 1   
    41    14    48 1   
    42    15    16 2   
    43    15    17 2   
    44    18    43 1   
    45    18    44 1   
    46    19    50 1   
    47    20    21 1   
    48    21    22 ar  
    49    22    45 1   
    50    23    24 1   
    51    35    50 1   
    52    36    50 1   
@<TRIPOS>SUBSTRUCTURE
     1 7BR         1 TEMP              0 ****  ****    0 ROOT
