@<TRIPOS>MOLECULE
7BT
   59    60     1     0     0
SMALL
bcc


@<TRIPOS>ATOM
      1 C4          -4.3850     1.4830     0.6740 c6         1 7BT       0.094100
      2 C5          -3.3050     0.4600     1.0350 c6         1 7BT       0.103100
      3 C6          -2.7740     0.6540     2.4390 c3         1 7BT       0.147400
      4 C3          -4.9070     1.1580    -0.7260 c6         1 7BT       0.114100
      5 CBB          1.8800    -1.1820     2.4810 c3         1 7BT       0.120200
      6 CAU          3.3120    -0.1050     0.9320 ca         1 7BT       0.154600
      7 CAT          2.7080    -0.7230    -0.1560 ca         1 7BT      -0.218500
      8 CAV          4.3230     0.8410     0.7280 ca         1 7BT       0.033100
      9 OAZ          4.8950     1.4640     1.7910 os         1 7BT      -0.305900
     10 CBC          6.0410     0.8030     2.3110 c3         1 7BT       0.125700
     11 CAW          4.7360     1.1470    -0.5710 ca         1 7BT       0.154600
     12 OBA          5.7240     2.0540    -0.6680 os         1 7BT      -0.302900
     13 CBD          6.1640     2.4330    -1.9560 c3         1 7BT       0.120200
     14 CAX          4.1240     0.5290    -1.6580 ca         1 7BT      -0.218500
     15 CAF          3.0970    -0.3900    -1.4500 ca         1 7BT       0.002200
     16 CAE          2.4780    -1.0190    -2.6240 ce         1 7BT      -0.041200
     17 CAC          1.2050    -1.3880    -2.7890 cf         1 7BT      -0.239200
     18 CAB          0.0860    -1.1150    -1.8420 c          1 7BT       0.666300
     19 OAD         -0.0640    -0.0370    -1.2830 o          1 7BT      -0.595100
     20 NAA         -0.7510    -2.1510    -1.6690 ns         1 7BT      -0.578900
     21 CAG         -1.8790    -2.0950    -0.7630 c3         1 7BT       0.104000
     22 CAS         -3.0600    -1.3210    -1.3430 c3         1 7BT      -0.126400
     23 C1          -4.2280    -1.2330    -0.3570 c6         1 7BT       0.154100
     24 O5          -3.8200    -0.8530     0.9430 os         1 7BT      -0.387600
     25 O6          -1.6680    -0.1950     2.6350 oh         1 7BT      -0.587800
     26 O4          -5.4680     1.4580     1.5750 oh         1 7BT      -0.572800
     27 O3          -6.0040     1.9580    -1.1010 oh         1 7BT      -0.589800
     28 C2          -5.3550    -0.2980    -0.8140 c6         1 7BT       0.128100
     29 O2          -5.7260    -0.6520    -2.1240 oh         1 7BT      -0.600800
     30 H1          -3.9170     2.4780     0.6490 h1         1 7BT       0.034700
     31 H2          -2.4630     0.5960     0.3390 h1         1 7BT       0.074700
     32 H3          -2.5000     1.7110     2.5540 h1         1 7BT       0.026200
     33 H4          -3.5700     0.4440     3.1650 h1         1 7BT       0.026200
     34 H5          -4.0740     1.3080    -1.4270 h1         1 7BT       0.047700
     35 H6           0.9630    -0.8010     2.0220 h1         1 7BT       0.043200
     36 H7           2.0470    -2.2080     2.1430 h1         1 7BT       0.043200
     37 H8           1.7560    -1.1900     3.5610 h1         1 7BT       0.043200
     38 H9           1.9560    -1.4830    -0.0060 ha         1 7BT       0.139000
     39 H10          6.3940     1.3900     3.1570 h1         1 7BT       0.032700
     40 H11          5.8040    -0.2050     2.6610 h1         1 7BT       0.032700
     41 H12          6.8420     0.7390     1.5710 h1         1 7BT       0.032700
     42 H13          6.5770     1.5880    -2.5140 h1         1 7BT       0.043200
     43 H14          5.3610     2.8840    -2.5450 h1         1 7BT       0.043200
     44 H15          6.9480     3.1710    -1.8090 h1         1 7BT       0.043200
     45 H16          4.4260     0.7580    -2.6710 ha         1 7BT       0.139000
     46 H17          3.1540    -1.2180    -3.4490 ha         1 7BT       0.124000
     47 H18          0.9420    -1.9110    -3.7020 ha         1 7BT       0.131000
     48 H19         -0.5890    -3.0010    -2.1840 hn         1 7BT       0.313500
     49 H20         -2.1710    -3.1210    -0.5400 h1         1 7BT       0.060700
     50 H21         -1.5490    -1.6440     0.1730 h1         1 7BT       0.060700
     51 H22         -2.7160    -0.3310    -1.6490 hc         1 7BT       0.060700
     52 H23         -3.4060    -1.8210    -2.2490 hc         1 7BT       0.060700
     53 H24         -4.6440    -2.2390    -0.2370 h1         1 7BT       0.083700
     54 H25         -1.3900    -0.1130     3.5510 ho         1 7BT       0.404000
     55 H26         -5.2520     2.0070     2.3330 ho         1 7BT       0.400000
     56 H27         -5.6790     2.8220    -1.3710 ho         1 7BT       0.407000
     57 H28         -6.2000    -0.4410    -0.1230 h1         1 7BT       0.072700
     58 H29         -6.4000    -0.0300    -2.4160 ho         1 7BT       0.422000
     59 OAY          2.9910    -0.3470     2.2140 os         1 7BT      -0.302900
@<TRIPOS>BOND
     1     1     2 1   
     2     1     4 1   
     3     1    26 1   
     4     1    30 1   
     5     2     3 1   
     6     2    24 1   
     7     2    31 1   
     8     3    25 1   
     9     3    32 1   
    10     3    33 1   
    11     4    27 1   
    12     4    28 1   
    13     4    34 1   
    14     5    35 1   
    15     5    36 1   
    16     5    37 1   
    17     5    59 1   
    18     6     7 ar  
    19     6     8 ar  
    20     6    59 1   
    21     7    15 ar  
    22     7    38 1   
    23     8     9 1   
    24     8    11 ar  
    25     9    10 1   
    26    10    39 1   
    27    10    40 1   
    28    10    41 1   
    29    11    12 1   
    30    11    14 ar  
    31    12    13 1   
    32    13    42 1   
    33    13    43 1   
    34    13    44 1   
    35    14    15 ar  
    36    14    45 1   
    37    15    16 1   
    38    16    17 2   
    39    16    46 1   
    40    17    18 1   
    41    17    47 1   
    42    18    19 2   
    43    18    20 1   
    44    20    21 1   
    45    20    48 1   
    46    21    22 1   
    47    21    49 1   
    48    21    50 1   
    49    22    23 1   
    50    22    51 1   
    51    22    52 1   
    52    23    24 1   
    53    23    28 1   
    54    23    53 1   
    55    25    54 1   
    56    26    55 1   
    57    27    56 1   
    58    28    29 1   
    59    28    57 1   
    60    29    58 1   
@<TRIPOS>SUBSTRUCTURE
     1 7BT         1 TEMP              0 ****  ****    0 ROOT
