@<TRIPOS>MOLECULE
7BT
   59    60     1     0     0
SMALL
No Charge or Current Charge


@<TRIPOS>ATOM
      1 C4          -4.1490     1.5700     0.9500 c6         1 7BT       0.117300
      2 C5          -3.4750     0.1810     1.2240 c6         1 7BT       0.126300
      3 C6          -3.3340    -0.1460     2.7480 c3         1 7BT       0.170600
      4 C3          -4.2630     1.7700    -0.5930 c6         1 7BT       0.137300
      5 CBB          2.9570    -1.3270     2.8810 c3         1 7BT       0.143400
      6 CAU          3.8180    -0.0940     0.9030 ca         1 7BT       0.154600
      7 CAT          3.1940    -1.0120     0.0270 ca         1 7BT      -0.200500
      8 CAV          4.5520     1.0050     0.3560 ca         1 7BT       0.033100
      9 OAZ          5.2120     1.9750     1.1130 os         1 7BT      -0.329100
     10 CBC          5.2460     2.0230     2.5500 c3         1 7BT       0.148900
     11 CAW          4.6350     1.1430    -1.0520 ca         1 7BT       0.154600
     12 OBA          5.3560     2.2100    -1.5660 os         1 7BT      -0.326100
     13 CBD          5.5010     2.4420    -2.9780 c3         1 7BT       0.143400
     14 CAX          3.9970     0.2130    -1.9000 ca         1 7BT      -0.200500
     15 CAF          3.2660    -0.8530    -1.3640 ca         1 7BT       0.002200
     16 CAE          2.6240    -1.8360    -2.2770 ce         1 7BT      -0.091200
     17 CAC          1.3370    -2.3020    -2.3240 cf         1 7BT      -0.289200
     18 CAB          0.1940    -1.8870    -1.4650 c          1 7BT       0.599300
     19 OAD          0.2580    -1.0130    -0.6160 o          1 7BT      -0.595100
     20 NAA         -0.9730    -2.5730    -1.7170 ns         1 7BT      -0.511900
     21 CAG         -2.2450    -2.3400    -1.0270 c3         1 7BT       0.104000
     22 CAS         -2.9450    -1.0550    -1.5160 c3         1 7BT      -0.126400
     23 C1          -4.3420    -0.7940    -0.8610 c6         1 7BT       0.177300
     24 O5          -4.2300    -0.8890     0.5850 os         1 7BT      -0.434000
     25 O6          -2.6680    -1.3980     2.9980 oh         1 7BT      -0.710000
     26 O4          -5.4670     1.6810     1.5370 oh         1 7BT      -0.695000
     27 O3          -4.9590     2.9980    -0.8680 oh         1 7BT      -0.652000
     28 C2          -5.0120     0.5660    -1.2530 c6         1 7BT       0.151300
     29 O2          -5.0900     0.7510    -2.6820 oh         1 7BT      -0.723000
     30 H1          -3.4940     2.3570     1.3530 h1         1 7BT       0.034700
     31 H2          -2.4550     0.1990     0.8150 h1         1 7BT       0.074700
     32 H3          -2.7770     0.6740     3.2220 h1         1 7BT       0.026200
     33 H4          -4.3360    -0.1630     3.1950 h1         1 7BT       0.026200
     34 H5          -3.2460     1.8250    -1.0100 h1         1 7BT       0.047700
     35 H6           1.9010    -1.2660     2.5870 h1         1 7BT       0.043200
     36 H7           3.3510    -2.3090     2.5890 h1         1 7BT       0.043200
     37 H8           3.0090    -1.2530     3.9750 h1         1 7BT       0.043200
     38 H9           2.6420    -1.8650     0.4090 ha         1 7BT       0.121000
     39 H10          5.8290     2.8900     2.8840 h1         1 7BT       0.032700
     40 H11          4.2340     2.1210     2.9640 h1         1 7BT       0.032700
     41 H12          5.7210     1.1230     2.9610 h1         1 7BT       0.032700
     42 H13          5.9990     1.5940    -3.4640 h1         1 7BT       0.043200
     43 H14          4.5220     2.5960    -3.4510 h1         1 7BT       0.043200
     44 H15          6.1080     3.3390    -3.1550 h1         1 7BT       0.043200
     45 H16          4.0540     0.3070    -2.9800 ha         1 7BT       0.121000
     46 H17          3.3160    -2.2250    -3.0270 ha         1 7BT       0.174000
     47 H18          1.1050    -3.0440    -3.0860 ha         1 7BT       0.181000
     48 H19         -0.9380    -3.2840    -2.4370 hn         1 7BT       0.313500
     49 H20         -2.9010    -3.2040    -1.2020 h1         1 7BT       0.060700
     50 H21         -2.0550    -2.2760     0.0530 h1         1 7BT       0.060700
     51 H22         -2.2750    -0.2030    -1.3660 hc         1 7BT       0.060700
     52 H23         -3.0760    -1.1370    -2.6010 hc         1 7BT       0.060700
     53 H24         -5.0110    -1.6030    -1.1900 h1         1 7BT       0.083700
     54 H25         -2.7090    -1.5560     3.9700 ho         1 7BT       0.503000
     55 H26         -5.3560     1.7490     2.5130 ho         1 7BT       0.499000
     56 H27         -5.5910     3.0870    -0.1170 ho         1 7BT       0.446000
     57 H28         -6.0310     0.5450    -0.8370 h1         1 7BT       0.072700
     58 H29         -5.2350     1.7200    -2.8050 ho         1 7BT       0.521000
     59 OAY          3.7190    -0.2670     2.2750 os         1 7BT      -0.326100
@<TRIPOS>BOND
     1     1     2 1   
     2     1     4 1   
     3     1    26 1   
     4     1    30 1   
     5     2     3 1   
     6     2    24 1   
     7     2    31 1   
     8     3    25 1   
     9     3    32 1   
    10     3    33 1   
    11     4    27 1   
    12     4    28 1   
    13     4    34 1   
    14     5    35 1   
    15     5    36 1   
    16     5    37 1   
    17     5    59 1   
    18     6     7 ar  
    19     6     8 ar  
    20     6    59 1   
    21     7    15 ar  
    22     7    38 1   
    23     8     9 1   
    24     8    11 ar  
    25     9    10 1   
    26    10    39 1   
    27    10    40 1   
    28    10    41 1   
    29    11    12 1   
    30    11    14 ar  
    31    12    13 1   
    32    13    42 1   
    33    13    43 1   
    34    13    44 1   
    35    14    15 ar  
    36    14    45 1   
    37    15    16 1   
    38    16    17 2   
    39    16    46 1   
    40    17    18 1   
    41    17    47 1   
    42    18    19 2   
    43    18    20 1   
    44    20    21 1   
    45    20    48 1   
    46    21    22 1   
    47    21    49 1   
    48    21    50 1   
    49    22    23 1   
    50    22    51 1   
    51    22    52 1   
    52    23    24 1   
    53    23    28 1   
    54    23    53 1   
    55    25    54 1   
    56    26    55 1   
    57    27    56 1   
    58    28    29 1   
    59    28    57 1   
    60    29    58 1   
@<TRIPOS>SUBSTRUCTURE
     1 7BT         1 TEMP              0 ****  ****    0 ROOT
