@<TRIPOS>MOLECULE
7BV
   42    45     1     0     0
SMALL
No Charge or Current Charge


@<TRIPOS>ATOM
      1 O            4.8430    -0.4020     2.6330 o          1 7BV      -0.693500
      2 C            5.6230    -0.3130     1.6920 c          1 7BV       0.737000
      3 OXT          6.8060    -0.6050     1.8110 o          1 7BV      -0.693500
      4 CA           5.1420     0.2820     0.3190 c5         1 7BV      -0.062500
      5 N            3.7220     0.7860     0.3070 n2         1 7BV      -0.451900
      6 CB           5.2060    -0.8250    -0.7630 c5         1 7BV       0.082600
      7 SAO          3.6470    -1.7620    -0.4800 ss         1 7BV      -0.457200
      8 CAR          2.9150    -0.1880    -0.0120 ce         1 7BV       0.392900
      9 CAT          1.4620     0.0290    -0.2240 cc         1 7BV       0.393900
     10 NAN          0.8520     1.2150    -0.0130 nd         1 7BV      -0.484100
     11 SAP          0.4440    -1.3290    -0.7750 ss         1 7BV       0.020800
     12 CAV         -0.8930    -0.1960    -0.7110 ca         1 7BV      -0.152000
     13 CAE         -2.2280    -0.4860    -1.0330 ca         1 7BV      -0.167000
     14 CAU         -0.4970     1.0560    -0.3010 ca         1 7BV       0.051400
     15 CAD         -1.4470     2.0820    -0.1990 ca         1 7BV      -0.014000
     16 CAC         -2.7950     1.8170    -0.5160 ca         1 7BV      -0.193000
     17 CAS         -3.2120     0.5280    -0.9360 ca         1 7BV       0.333000
     18 NAW         -4.5770     0.2530    -1.2530 nh         1 7BV      -0.815400
     19 CAJ         -5.5970     1.3220    -1.3680 c3         1 7BV       0.225800
     20 CAH         -6.2940     1.6790    -0.0310 c3         1 7BV      -0.103900
     21 CAF         -6.9080     0.4860     0.7550 c3         1 7BV      -0.068900
     22 CAG         -5.8610    -0.5110     1.3190 c3         1 7BV      -0.068900
     23 CAI         -5.3350    -1.5810     0.3240 c3         1 7BV      -0.103900
     24 CAK         -5.1450    -1.1090    -1.1340 c3         1 7BV       0.225800
     25 HA           5.8320     1.0980     0.0720 h1         1 7BV       0.077700
     26 HB2          5.1910    -0.3900    -1.7720 h1         1 7BV       0.068200
     27 HB1          6.0890    -1.4740    -0.6760 h1         1 7BV       0.068200
     28 HAE         -2.4810    -1.4880    -1.3590 ha         1 7BV       0.115000
     29 HAD         -1.1440     3.0750     0.1250 ha         1 7BV       0.128000
     30 HAC         -3.5050     2.6300    -0.4200 ha         1 7BV       0.104000
     31 HAN         -5.1570     2.2290    -1.8030 h1         1 7BV       0.044450
     32 HAO         -6.3720     1.0060    -2.0810 h1         1 7BV       0.044450
     33 HAJ         -5.5810     2.1970     0.6200 hc         1 7BV       0.042950
     34 HAK         -7.0900     2.4020    -0.2460 hc         1 7BV       0.042950
     35 HAF         -7.4730     0.8990     1.6000 hc         1 7BV       0.038950
     36 HAG         -7.6360    -0.0460     0.1290 hc         1 7BV       0.038950
     37 HAI         -5.0100     0.0580     1.7150 hc         1 7BV       0.038950
     38 HAH         -6.2980    -1.0330     2.1790 hc         1 7BV       0.038950
     39 HAL         -4.3780    -1.9620     0.7010 hc         1 7BV       0.042950
     40 HAM         -6.0240    -2.4350     0.3160 hc         1 7BV       0.042950
     41 HAP         -6.1320    -1.1300    -1.6170 h1         1 7BV       0.044450
     42 HAQ         -4.5440    -1.8420    -1.6870 h1         1 7BV       0.044450
@<TRIPOS>BOND
     1     1     2 1   
     2     2     3 1   
     3     2     4 1   
     4     4     5 1   
     5     4     6 1   
     6     4    25 1   
     7     5     8 2   
     8     6     7 1   
     9     6    26 1   
    10     6    27 1   
    11     7     8 1   
    12     8     9 1   
    13     9    10 2   
    14     9    11 1   
    15    10    14 1   
    16    11    12 1   
    17    12    13 ar  
    18    12    14 ar  
    19    13    17 ar  
    20    13    28 1   
    21    14    15 ar  
    22    15    16 ar  
    23    15    29 1   
    24    16    17 ar  
    25    16    30 1   
    26    17    18 1   
    27    18    19 1   
    28    18    24 1   
    29    19    20 1   
    30    19    31 1   
    31    19    32 1   
    32    20    21 1   
    33    20    33 1   
    34    20    34 1   
    35    21    22 1   
    36    21    35 1   
    37    21    36 1   
    38    22    23 1   
    39    22    37 1   
    40    22    38 1   
    41    23    24 1   
    42    23    39 1   
    43    23    40 1   
    44    24    41 1   
    45    24    42 1   
@<TRIPOS>SUBSTRUCTURE
     1 7BV         1 TEMP              0 ****  ****    0 ROOT
