@<TRIPOS>MOLECULE
7BV
   42    45     1     0     0
SMALL
abcg2


@<TRIPOS>ATOM
      1 O            4.5610     1.1280     2.2660 o          1 7BV      -0.693500
      2 C            5.3500     0.4450     1.5990 c          1 7BV       0.737000
      3 OXT          6.4310    -0.0520     1.9620 o          1 7BV      -0.693500
      4 CA           4.9860     0.1660     0.1050 c5         1 7BV      -0.062500
      5 N            3.6770     0.6880    -0.2200 n2         1 7BV      -0.451900
      6 CB           5.0120    -1.3370    -0.2120 c5         1 7BV       0.082600
      7 SAO          3.3100    -1.8770     0.1280 ss         1 7BV      -0.457200
      8 CAR          2.7880    -0.2050    -0.1720 ce         1 7BV       0.392900
      9 CAT          1.3610     0.0510    -0.3460 cc         1 7BV       0.393900
     10 NAN          0.8010     1.1990    -0.1910 nd         1 7BV      -0.484100
     11 SAP          0.2930    -1.2570    -0.8130 ss         1 7BV       0.020800
     12 CAV         -1.0280    -0.1410    -0.7880 ca         1 7BV      -0.152000
     13 CAE         -2.3640    -0.3880    -1.0580 ca         1 7BV      -0.167000
     14 CAU         -0.5420     1.1270    -0.4310 ca         1 7BV       0.051400
     15 CAD         -1.4590     2.1780    -0.3400 ca         1 7BV      -0.014000
     16 CAC         -2.7880     1.9520    -0.6010 ca         1 7BV      -0.193000
     17 CAS         -3.2830     0.6710    -0.9770 ca         1 7BV       0.333000
     18 NAW         -4.6030     0.4820    -1.2780 nh         1 7BV      -0.815400
     19 CAJ         -5.6010     1.5040    -1.0100 c3         1 7BV       0.225800
     20 CAH         -6.0660     1.5550     0.4400 c3         1 7BV      -0.103900
     21 CAF         -6.5780     0.2230     0.9880 c3         1 7BV      -0.068900
     22 CAG         -5.5030    -0.8630     1.1040 c3         1 7BV      -0.068900
     23 CAI         -5.2470    -1.6830    -0.1600 c3         1 7BV      -0.103900
     24 CAK         -5.1360    -0.8560    -1.4490 c3         1 7BV       0.225800
     25 HA           5.7360     0.6700    -0.5120 h1         1 7BV       0.077700
     26 HB2          5.2420    -1.5380    -1.2590 h1         1 7BV       0.068200
     27 HB1          5.7130    -1.8780     0.4170 h1         1 7BV       0.068200
     28 HAE         -2.6760    -1.3850    -1.3260 ha         1 7BV       0.115000
     29 HAD         -1.1220     3.1670    -0.0580 ha         1 7BV       0.128000
     30 HAC         -3.4650     2.7880    -0.5100 ha         1 7BV       0.104000
     31 HAN         -5.2330     2.4820    -1.3240 h1         1 7BV       0.044450
     32 HAO         -6.4540     1.2950    -1.6580 h1         1 7BV       0.044450
     33 HAJ         -5.2490     1.9070     1.0780 hc         1 7BV       0.042950
     34 HAK         -6.8550     2.3080     0.5110 hc         1 7BV       0.042950
     35 HAF         -6.9910     0.4100     1.9810 hc         1 7BV       0.038950
     36 HAG         -7.4170    -0.1370     0.3800 hc         1 7BV       0.038950
     37 HAI         -4.5690    -0.3980     1.4350 hc         1 7BV       0.038950
     38 HAH         -5.7770    -1.5620     1.8980 hc         1 7BV       0.038950
     39 HAL         -4.3470    -2.2850    -0.0080 hc         1 7BV       0.042950
     40 HAM         -6.0610    -2.3990    -0.3040 hc         1 7BV       0.042950
     41 HAP         -6.1290    -0.7360    -1.8810 h1         1 7BV       0.044450
     42 HAQ         -4.5570    -1.3990    -2.2000 h1         1 7BV       0.044450
@<TRIPOS>BOND
     1     1     2 1   
     2     2     3 1   
     3     2     4 1   
     4     4     5 1   
     5     4     6 1   
     6     4    25 1   
     7     5     8 2   
     8     6     7 1   
     9     6    26 1   
    10     6    27 1   
    11     7     8 1   
    12     8     9 1   
    13     9    10 2   
    14     9    11 1   
    15    10    14 1   
    16    11    12 1   
    17    12    13 ar  
    18    12    14 ar  
    19    13    17 ar  
    20    13    28 1   
    21    14    15 ar  
    22    15    16 ar  
    23    15    29 1   
    24    16    17 ar  
    25    16    30 1   
    26    17    18 1   
    27    18    19 1   
    28    18    24 1   
    29    19    20 1   
    30    19    31 1   
    31    19    32 1   
    32    20    21 1   
    33    20    33 1   
    34    20    34 1   
    35    21    22 1   
    36    21    35 1   
    37    21    36 1   
    38    22    23 1   
    39    22    37 1   
    40    22    38 1   
    41    23    24 1   
    42    23    39 1   
    43    23    40 1   
    44    24    41 1   
    45    24    42 1   
@<TRIPOS>SUBSTRUCTURE
     1 7BV         1 TEMP              0 ****  ****    0 ROOT
