@<TRIPOS>MOLECULE
7BW
   37    38     1     0     0
SMALL
No Charge or Current Charge


@<TRIPOS>ATOM
      1 C1           4.8170     0.6840     2.3790 c3         1 7BW      -0.083100
      2 C2           4.3830     0.4410     0.9110 c5         1 7BW      -0.060000
      3 C3           5.6620     0.2780     0.0450 c3         1 7BW      -0.083100
      4 C6           1.9410    -1.4230    -1.2840 c3         1 7BW       0.110000
      5 C7           0.5370    -1.8140    -0.7800 c3         1 7BW       0.135600
      6 C10         -2.2360    -1.8320     0.1010 ca         1 7BW      -0.159000
      7 C11         -3.5780    -1.7880     0.5260 ca         1 7BW      -0.118000
      8 C12         -4.2850    -0.5740     0.5060 ca         1 7BW       0.169000
      9 C14         -3.6560     0.6060     0.0620 ca         1 7BW      -0.021000
     10 C15         -4.3710     1.8520     0.0390 cg         1 7BW       0.326000
     11 C4           3.4160    -0.7890     0.7720 c5         1 7BW       0.098000
     12 N5           2.6200    -0.4310    -0.4190 n          1 7BW      -0.415800
     13 O8          -0.2880    -0.6340    -0.7720 os         1 7BW      -0.328100
     14 C9          -1.6000    -0.6530    -0.3450 ca         1 7BW       0.129100
     15 N16         -4.9410     2.8710     0.0150 n1         1 7BW      -0.432000
     16 C17         -2.3130     0.5580    -0.3630 ca         1 7BW      -0.084000
     17 C18          2.7220     0.9090    -0.7960 c          1 7BW       0.571000
     18 O19          2.4770     1.3530    -1.9090 o          1 7BW      -0.541000
     19 C20          3.4530     1.5680     0.3680 c5         1 7BW      -0.164400
     20 H22          5.4100    -0.1550     2.7630 hc         1 7BW       0.039867
     21 H23          5.4240     1.5930     2.4690 hc         1 7BW       0.039867
     22 H21          3.9480     0.8010     3.0380 hc         1 7BW       0.039867
     23 H24          5.4190     0.0880    -1.0070 hc         1 7BW       0.039867
     24 H25          6.2850     1.1800     0.0820 hc         1 7BW       0.039867
     25 H26          6.2740    -0.5630     0.3950 hc         1 7BW       0.039867
     26 H30          2.5600    -2.3280    -1.3290 h1         1 7BW       0.071200
     27 H29          1.8580    -1.0410    -2.3090 h1         1 7BW       0.071200
     28 H32          0.1140    -2.5780    -1.4460 h1         1 7BW       0.039200
     29 H31          0.6210    -2.2360     0.2300 h1         1 7BW       0.039200
     30 H33         -1.7120    -2.7840     0.1260 ha         1 7BW       0.123000
     31 H34         -4.0720    -2.6930     0.8700 ha         1 7BW       0.136000
     32 H27          3.9600    -1.7340     0.6410 h1         1 7BW       0.044700
     33 H28          2.7580    -0.8900     1.6450 h1         1 7BW       0.044700
     34 H35         -1.8140     1.4610    -0.7080 ha         1 7BW       0.149000
     35 H36          2.7010     1.7950     1.1330 hc         1 7BW       0.078200
     36 H37          3.9520     2.4930     0.0630 hc         1 7BW       0.078200
     37 F13         -5.5740    -0.5570     0.9200 f          1 7BW      -0.163000
@<TRIPOS>BOND
     1     1     2 1   
     2     1    20 1   
     3     1    21 1   
     4     1    22 1   
     5     2     3 1   
     6     2    11 1   
     7     2    19 1   
     8     3    23 1   
     9     3    24 1   
    10     3    25 1   
    11     4     5 1   
    12     4    12 1   
    13     4    26 1   
    14     4    27 1   
    15     5    13 1   
    16     5    28 1   
    17     5    29 1   
    18     6     7 ar  
    19     6    14 ar  
    20     6    30 1   
    21     7     8 ar  
    22     7    31 1   
    23     8     9 ar  
    24     8    37 1   
    25     9    10 1   
    26     9    16 ar  
    27    10    15 3   
    28    11    12 1   
    29    11    32 1   
    30    11    33 1   
    31    12    17 1   
    32    13    14 1   
    33    14    16 ar  
    34    16    34 1   
    35    17    18 2   
    36    17    19 1   
    37    19    35 1   
    38    19    36 1   
@<TRIPOS>SUBSTRUCTURE
     1 7BW         1 TEMP              0 ****  ****    0 ROOT
