@<TRIPOS>MOLECULE
7BW
   37    38     1     0     0
SMALL
bcc


@<TRIPOS>ATOM
      1 C1           4.1800     0.7690     2.3790 c3         1 7BW      -0.083100
      2 C2           4.1170     0.4480     0.8940 c5         1 7BW      -0.060000
      3 C3           5.5120     0.1170     0.3650 c3         1 7BW      -0.083100
      4 C6           1.9860    -1.4300    -1.5170 c3         1 7BW       0.110000
      5 C7           0.6350    -1.7900    -0.9320 c3         1 7BW       0.112400
      6 C10         -1.9890    -1.8230     0.1090 ca         1 7BW      -0.177000
      7 C11         -3.2720    -1.7840     0.6400 ca         1 7BW      -0.136000
      8 C12         -3.9250    -0.5800     0.7430 ca         1 7BW       0.133900
      9 C14         -3.3160     0.5980     0.3240 ca         1 7BW      -0.021000
     10 C15         -4.0190     1.8310     0.4370 cg         1 7BW       0.236800
     11 C4           3.1590    -0.7200     0.6010 c5         1 7BW       0.098000
     12 N5           2.6920    -0.4480    -0.7420 n          1 7BW      -0.482800
     13 O8          -0.1290    -0.6010    -0.8480 os         1 7BW      -0.304900
     14 C9          -1.3600    -0.6530    -0.3170 ca         1 7BW       0.129100
     15 N16         -4.5900     2.8280     0.5240 n1         1 7BW      -0.342800
     16 C17         -2.0300     0.5620    -0.2050 ca         1 7BW      -0.102000
     17 C18          2.8120     0.8520    -1.0920 c          1 7BW       0.713500
     18 O19          2.4320     1.3480    -2.1380 o          1 7BW      -0.616500
     19 C20          3.4870     1.5680     0.0570 c5         1 7BW      -0.164400
     20 H22          4.5660    -0.0800     2.9470 hc         1 7BW       0.039867
     21 H23          4.8410     1.6170     2.5670 hc         1 7BW       0.039867
     22 H21          3.1940     1.0160     2.7760 hc         1 7BW       0.039867
     23 H24          5.4940    -0.1590    -0.6910 hc         1 7BW       0.039867
     24 H25          6.1790     0.9740     0.4720 hc         1 7BW       0.039867
     25 H26          5.9470    -0.7170     0.9190 hc         1 7BW       0.039867
     26 H30          2.5780    -2.3470    -1.5770 h1         1 7BW       0.071200
     27 H29          1.8690    -1.0540    -2.5330 h1         1 7BW       0.071200
     28 H32          0.1520    -2.5280    -1.5820 h1         1 7BW       0.039200
     29 H31          0.7480    -2.2440     0.0590 h1         1 7BW       0.039200
     30 H33         -1.5000    -2.7840     0.0320 ha         1 7BW       0.141000
     31 H34         -3.7540    -2.6960     0.9640 ha         1 7BW       0.154000
     32 H27          3.6550    -1.6930     0.6490 h1         1 7BW       0.044700
     33 H28          2.3260    -0.7360     1.3150 h1         1 7BW       0.044700
     34 H35         -1.5540     1.4770    -0.5320 ha         1 7BW       0.167000
     35 H36          2.7140     2.1000     0.6200 hc         1 7BW       0.078200
     36 H37          4.1990     2.3140    -0.2980 hc         1 7BW       0.078200
     37 F13         -5.1610    -0.5170     1.2440 f          1 7BW      -0.127900
@<TRIPOS>BOND
     1     1     2 1   
     2     1    20 1   
     3     1    21 1   
     4     1    22 1   
     5     2     3 1   
     6     2    11 1   
     7     2    19 1   
     8     3    23 1   
     9     3    24 1   
    10     3    25 1   
    11     4     5 1   
    12     4    12 1   
    13     4    26 1   
    14     4    27 1   
    15     5    13 1   
    16     5    28 1   
    17     5    29 1   
    18     6     7 ar  
    19     6    14 ar  
    20     6    30 1   
    21     7     8 ar  
    22     7    31 1   
    23     8     9 ar  
    24     8    37 1   
    25     9    10 1   
    26     9    16 ar  
    27    10    15 3   
    28    11    12 1   
    29    11    32 1   
    30    11    33 1   
    31    12    17 1   
    32    13    14 1   
    33    14    16 ar  
    34    16    34 1   
    35    17    18 2   
    36    17    19 1   
    37    19    35 1   
    38    19    36 1   
@<TRIPOS>SUBSTRUCTURE
     1 7BW         1 TEMP              0 ****  ****    0 ROOT
