@<TRIPOS>MOLECULE
7BX
   25    26     1     0     0
SMALL
bcc


@<TRIPOS>ATOM
      1 N4           1.6530    -0.1050     1.1640 n7         1 7BX      -0.817100
      2 C5           2.1520    -1.3600     0.6720 cx         1 7BX       0.140500
      3 C6           3.4830    -1.4700    -0.0080 cx         1 7BX      -0.135400
      4 C7           3.3030    -1.9880     1.3860 cx         1 7BX      -0.135400
      5 C8          -0.3690     0.2880    -0.4910 ca         1 7BX      -0.270500
      6 C10         -1.6470    -0.7440    -2.2340 ca         1 7BX      -0.154000
      7 C11         -2.7300    -0.8420    -1.3810 ca         1 7BX      -0.043000
      8 C12         -2.6230    -0.3680    -0.0710 ca         1 7BX      -0.036000
      9 C13         -3.7400    -0.4690     0.8120 cg         1 7BX       0.228800
     10 C15         -1.4400     0.2030     0.3840 ca         1 7BX       0.011000
     11 O1           0.8160     2.2080     0.8810 o          1 7BX      -0.610300
     12 S2           1.1370     1.0300     0.0900 sy         1 7BX       1.300200
     13 O3           2.0110     1.1750    -1.0620 o          1 7BX      -0.610300
     14 C9          -0.4590    -0.1760    -1.7940 ca         1 7BX      -0.013000
     15 N14         -4.6430    -0.5530     1.5220 n1         1 7BX      -0.350800
     16 H17          1.3660    -2.0270     0.3370 h1         1 7BX       0.100700
     17 H19          3.5710    -2.1790    -0.8210 hc         1 7BX       0.083700
     18 H18          4.0580    -0.5630    -0.1310 hc         1 7BX       0.083700
     19 H20          3.7600    -1.4260     2.1910 hc         1 7BX       0.083700
     20 H21          3.2630    -3.0550     1.5540 hc         1 7BX       0.083700
     21 H23         -1.7250    -1.1090    -3.2480 ha         1 7BX       0.145000
     22 H24         -3.6570    -1.2840    -1.7210 ha         1 7BX       0.147000
     23 H25         -1.3660     0.5640     1.4010 ha         1 7BX       0.162000
     24 H22          0.3850    -0.1020    -2.4660 ha         1 7BX       0.163000
     25 H16          2.1410     0.3060     1.9520 hn         1 7BX       0.442800
@<TRIPOS>BOND
     1     1     2 1   
     2     1    12 1   
     3     1    25 1   
     4     2     3 1   
     5     2     4 1   
     6     2    16 1   
     7     3     4 1   
     8     3    17 1   
     9     3    18 1   
    10     4    19 1   
    11     4    20 1   
    12     5    10 ar  
    13     5    12 1   
    14     5    14 ar  
    15     6     7 ar  
    16     6    14 ar  
    17     6    21 1   
    18     7     8 ar  
    19     7    22 1   
    20     8     9 1   
    21     8    10 ar  
    22     9    15 3   
    23    10    23 1   
    24    11    12 2   
    25    12    13 2   
    26    14    24 1   
@<TRIPOS>SUBSTRUCTURE
     1 7BX         1 TEMP              0 ****  ****    0 ROOT
