@<TRIPOS>MOLECULE
7BX
   25    26     1     0     0
SMALL
No Charge or Current Charge


@<TRIPOS>ATOM
      1 N4           1.9220     0.2170     1.2330 n7         1 7BX      -0.872300
      2 C5           1.8820    -1.1730     0.8350 cx         1 7BX       0.140500
      3 C6           2.8880    -1.6400    -0.1870 cx         1 7BX      -0.135400
      4 C7           3.0450    -2.0300     1.2640 cx         1 7BX      -0.135400
      5 C8          -0.2480     0.4190    -0.3660 ca         1 7BX      -0.270500
      6 C10         -1.2660    -0.8870    -2.1530 ca         1 7BX      -0.136000
      7 C11         -2.4190    -1.0660    -1.3700 ca         1 7BX      -0.025000
      8 C12         -2.4910    -0.5030    -0.0810 ca         1 7BX      -0.036000
      9 C13         -3.6660    -0.6880     0.7220 cg         1 7BX       0.318000
     10 C15         -1.4040     0.2390     0.4210 ca         1 7BX       0.029000
     11 O1           0.6420     2.3610     1.2340 o          1 7BX      -0.539500
     12 S2           1.1410     1.3560     0.2910 sy         1 7BX       1.158600
     13 O3           2.0810     1.6780    -0.7840 o          1 7BX      -0.539500
     14 C9          -0.1800    -0.1470    -1.6560 ca         1 7BX       0.005000
     15 N14         -4.6180    -0.8350     1.3830 n1         1 7BX      -0.440000
     16 H17          0.8990    -1.6520     0.8320 h1         1 7BX       0.100700
     17 H19          2.5680    -2.4080    -0.8880 hc         1 7BX       0.083700
     18 H18          3.5870    -0.9150    -0.5970 hc         1 7BX       0.083700
     19 H20          3.8460    -1.5660     1.8330 hc         1 7BX       0.083700
     20 H21          2.8340    -3.0610     1.5370 hc         1 7BX       0.083700
     21 H23         -1.2130    -1.3240    -3.1480 ha         1 7BX       0.127000
     22 H24         -3.2540    -1.6420    -1.7650 ha         1 7BX       0.129000
     23 H25         -1.4580     0.6690     1.4210 ha         1 7BX       0.144000
     24 H22          0.7090    -0.0200    -2.2740 ha         1 7BX       0.145000
     25 H16          2.8750     0.5720     1.1800 hn         1 7BX       0.498000
@<TRIPOS>BOND
     1     1     2 1   
     2     1    12 1   
     3     1    25 1   
     4     2     3 1   
     5     2     4 1   
     6     2    16 1   
     7     3     4 1   
     8     3    17 1   
     9     3    18 1   
    10     4    19 1   
    11     4    20 1   
    12     5    10 ar  
    13     5    12 1   
    14     5    14 ar  
    15     6     7 ar  
    16     6    14 ar  
    17     6    21 1   
    18     7     8 ar  
    19     7    22 1   
    20     8     9 1   
    21     8    10 ar  
    22     9    15 3   
    23    10    23 1   
    24    11    12 2   
    25    12    13 2   
    26    14    24 1   
@<TRIPOS>SUBSTRUCTURE
     1 7BX         1 TEMP              0 ****  ****    0 ROOT
