@<TRIPOS>MOLECULE
7BY
   57    59     1     0     0
SMALL
abcg2


@<TRIPOS>ATOM
      1 C4           2.7760     0.1100     0.1760 ca         1 7BY       0.121000
      2 C5           1.5350     0.7280    -0.0420 ca         1 7BY      -0.225000
      3 C6           0.4260    -0.1720    -0.2070 ca         1 7BY       0.439900
      4 N1           0.5930    -1.4760    -0.1720 nb         1 7BY      -0.341000
      5 N3           2.9320    -1.2330     0.2220 nb         1 7BY      -0.298000
      6 CAY          3.2310    -3.9720     0.1930 c5         1 7BY       0.240800
      7 CAZ          2.9060    -5.4060    -0.2110 c5         1 7BY      -0.098400
      8 CBA          1.4490    -5.5640     0.2140 c5         1 7BY      -0.098400
      9 CBB          0.8370    -4.2050    -0.1130 c5         1 7BY       0.240800
     10 NAX          1.9560    -3.2920     0.0540 nh         1 7BY      -0.788300
     11 C2           1.8390    -1.9500     0.0390 ca         1 7BY       0.438900
     12 CAO          3.9150     0.9300     0.3580 ca         1 7BY      -0.206000
     13 CAP          3.8170     2.2970     0.3190 ca         1 7BY       0.165100
     14 OAQ          4.8390     3.1460     0.4810 os         1 7BY      -0.319100
     15 CAR          6.1200     2.6060     0.7470 c3         1 7BY       0.143900
     16 CAS          2.5520     2.9190     0.0920 ca         1 7BY       0.081100
     17 OAT          2.5750     4.2660     0.0700 os         1 7BY      -0.320100
     18 CAU          1.3580     4.9420    -0.1580 c3         1 7BY       0.145900
     19 CAV          1.4420     2.1370    -0.0770 ca         1 7BY      -0.128000
     20 NAI         -0.8190     0.2910    -0.3900 nu         1 7BY      -0.932100
     21 CAH         -1.9700    -0.5670    -0.5600 c3         1 7BY       0.235800
     22 CAG         -3.2470     0.2570    -0.5300 c3         1 7BY      -0.125400
     23 CAF         -4.4790    -0.6340    -0.6410 c3         1 7BY       0.109000
     24 NAE         -5.7160     0.1100    -0.6700 ns         1 7BY      -0.511900
     25 CAC         -6.3360     0.5620     0.4340 c          1 7BY       0.595100
     26 OAD         -5.9440     0.3020     1.5640 o          1 7BY      -0.599100
     27 CAB         -7.5460     1.4360     0.1760 c3         1 7BY      -0.157400
     28 CAA         -8.6020     1.3340     1.2640 c3         1 7BY      -0.077100
     29 H2           3.9930    -3.5170    -0.4410 h1         1 7BY       0.052700
     30 H3           2.9990    -5.5200    -1.2940 hc         1 7BY       0.051700
     31 H4           3.5740    -6.1290     0.2560 hc         1 7BY       0.051700
     32 H5           0.9370    -6.3800    -0.2950 hc         1 7BY       0.051700
     33 H6           1.3890    -5.7530     1.2880 hc         1 7BY       0.051700
     34 H7           0.4520    -4.1770    -1.1380 h1         1 7BY       0.052700
     35 H8           0.0090    -3.9470     0.5490 h1         1 7BY       0.052700
     36 H9           4.8620     0.4360     0.5310 ha         1 7BY       0.137000
     37 H10          6.7920     3.4520     0.8660 h1         1 7BY       0.043033
     38 H11          6.1260     2.0150     1.6660 h1         1 7BY       0.043033
     39 H12          6.4770     1.9820    -0.0770 h1         1 7BY       0.043033
     40 H13          1.5870     6.0050    -0.1580 h1         1 7BY       0.037033
     41 H14          0.9160     4.6760    -1.1220 h1         1 7BY       0.037033
     42 H15          0.6250     4.7410     0.6290 h1         1 7BY       0.037033
     43 H16          0.4840     2.6130    -0.2390 ha         1 7BY       0.105000
     44 H17         -0.9580     1.2770    -0.5280 hn         1 7BY       0.494000
     45 H18         -1.9030    -1.1240    -1.5020 h1         1 7BY       0.054200
     46 H19         -1.9850    -1.3120     0.2380 h1         1 7BY       0.054200
     47 H20         -3.2930     0.8280     0.4010 hc         1 7BY       0.052200
     48 H21         -3.2450     0.9790    -1.3530 hc         1 7BY       0.052200
     49 H22         -4.4300    -1.2290    -1.5540 h1         1 7BY       0.057700
     50 H23         -4.5060    -1.3360     0.1940 h1         1 7BY       0.057700
     51 H24         -6.0750     0.3850    -1.5700 hn         1 7BY       0.310500
     52 H25         -7.1850     2.4680     0.1050 hc         1 7BY       0.052700
     53 H26         -7.9760     1.2030    -0.8000 hc         1 7BY       0.052700
     54 H27         -9.4360     1.9990     1.0410 hc         1 7BY       0.043367
     55 H28         -8.9990     0.3220     1.3420 hc         1 7BY       0.043367
     56 H29         -8.2030     1.6150     2.2370 hc         1 7BY       0.043367
     57 H1           3.5950    -3.9200     1.2250 h1         1 7BY       0.052700
@<TRIPOS>BOND
     1     1     2 ar  
     2     1     5 ar  
     3     1    12 ar  
     4     2     3 ar  
     5     2    19 ar  
     6     3     4 ar  
     7     3    20 1   
     8     4    11 ar  
     9     5    11 ar  
    10     6     7 1   
    11     6    10 1   
    12     6    29 1   
    13     6    57 1   
    14     7     8 1   
    15     7    30 1   
    16     7    31 1   
    17     8     9 1   
    18     8    32 1   
    19     8    33 1   
    20     9    10 1   
    21     9    34 1   
    22     9    35 1   
    23    10    11 1   
    24    12    13 ar  
    25    12    36 1   
    26    13    14 1   
    27    13    16 ar  
    28    14    15 1   
    29    15    37 1   
    30    15    38 1   
    31    15    39 1   
    32    16    17 1   
    33    16    19 ar  
    34    17    18 1   
    35    18    40 1   
    36    18    41 1   
    37    18    42 1   
    38    19    43 1   
    39    20    21 1   
    40    20    44 1   
    41    21    22 1   
    42    21    45 1   
    43    21    46 1   
    44    22    23 1   
    45    22    47 1   
    46    22    48 1   
    47    23    24 1   
    48    23    49 1   
    49    23    50 1   
    50    24    25 1   
    51    24    51 1   
    52    25    26 2   
    53    25    27 1   
    54    27    28 1   
    55    27    52 1   
    56    27    53 1   
    57    28    54 1   
    58    28    55 1   
    59    28    56 1   
@<TRIPOS>SUBSTRUCTURE
     1 7BY         1 TEMP              0 ****  ****    0 ROOT
