@<TRIPOS>MOLECULE
7BY
   57    59     1     0     0
SMALL
No Charge or Current Charge


@<TRIPOS>ATOM
      1 C4           2.8560     0.0740     0.1170 ca         1 7BY       0.121000
      2 C5           1.5680     0.6480     0.0300 ca         1 7BY      -0.225000
      3 C6           0.4740    -0.2430    -0.0600 ca         1 7BY       0.439900
      4 N1           0.6410    -1.5720    -0.0640 nb         1 7BY      -0.341000
      5 N3           3.0100    -1.2630     0.1120 nb         1 7BY      -0.298000
      6 CAY          3.4130    -4.0880     0.0470 c5         1 7BY       0.240800
      7 CAZ          3.0440    -5.5410    -0.3490 c5         1 7BY      -0.098400
      8 CBA          1.6850    -5.7180     0.3730 c5         1 7BY      -0.098400
      9 CBB          0.9610    -4.4030    -0.0140 c5         1 7BY       0.240800
     10 NAX          2.0810    -3.4230     0.0190 nh         1 7BY      -0.788300
     11 C2           1.9020    -2.0220     0.0230 ca         1 7BY       0.438900
     12 CAO          3.9810     0.9090     0.2080 ca         1 7BY      -0.206000
     13 CAP          3.8430     2.3140     0.2150 ca         1 7BY       0.165100
     14 OAQ          4.9410     3.1540     0.3040 os         1 7BY      -0.319100
     15 CAR          6.2890     2.6600     0.3960 c3         1 7BY       0.143900
     16 CAS          2.5550     2.8920     0.1280 ca         1 7BY       0.081100
     17 OAT          2.4480     4.2750     0.1370 os         1 7BY      -0.320100
     18 CAU          1.1840     4.9570     0.0540 c3         1 7BY       0.145900
     19 CAV          1.4190     2.0560     0.0360 ca         1 7BY      -0.128000
     20 NAI         -0.8410     0.2060    -0.1490 nu         1 7BY      -0.932100
     21 CAH         -2.0590    -0.6130    -0.2400 c3         1 7BY       0.235800
     22 CAG         -3.3010     0.2910    -0.3230 c3         1 7BY      -0.125400
     23 CAF         -4.6090    -0.5160    -0.4280 c3         1 7BY       0.109000
     24 NAE         -5.7850     0.3520    -0.5240 ns         1 7BY      -0.511900
     25 CAC         -6.3870     0.9820     0.5430 c          1 7BY       0.595100
     26 OAD         -5.9840     0.8580     1.6910 o          1 7BY      -0.599100
     27 CAB         -7.5790     1.8750     0.1810 c3         1 7BY      -0.157400
     28 CAA         -8.9200     1.2360     0.6030 c3         1 7BY      -0.077100
     29 H2           4.1250    -3.6500    -0.6660 h1         1 7BY       0.052700
     30 H3           2.9360    -5.6410    -1.4360 hc         1 7BY       0.051700
     31 H4           3.7980    -6.2660    -0.0240 hc         1 7BY       0.051700
     32 H5           1.1380    -6.6070     0.0430 hc         1 7BY       0.051700
     33 H6           1.8160    -5.7940     1.4590 hc         1 7BY       0.051700
     34 H7           0.5230    -4.4670    -1.0200 h1         1 7BY       0.052700
     35 H8           0.1620    -4.1630     0.7010 h1         1 7BY       0.052700
     36 H9           4.9600     0.4440     0.2740 ha         1 7BY       0.137000
     37 H10          6.9960     3.4960     0.4580 h1         1 7BY       0.043033
     38 H11          6.4170     2.0410     1.2930 h1         1 7BY       0.043033
     39 H12          6.5460     2.0620    -0.4870 h1         1 7BY       0.043033
     40 H13          1.3370     6.0430     0.0780 h1         1 7BY       0.037033
     41 H14          0.6670     4.7070    -0.8820 h1         1 7BY       0.037033
     42 H15          0.5390     4.6860     0.8990 h1         1 7BY       0.037033
     43 H16          0.4290     2.4940    -0.0310 ha         1 7BY       0.105000
     44 H17         -0.9580     1.2160    -0.1420 hn         1 7BY       0.494000
     45 H18         -2.0160    -1.2550    -1.1320 h1         1 7BY       0.054200
     46 H19         -2.1430    -1.2640     0.6410 h1         1 7BY       0.054200
     47 H20         -3.3420     0.9330     0.5650 hc         1 7BY       0.052200
     48 H21         -3.2150     0.9480    -1.1980 hc         1 7BY       0.052200
     49 H22         -4.5750    -1.1550    -1.3210 h1         1 7BY       0.057700
     50 H23         -4.7150    -1.1690     0.4490 h1         1 7BY       0.057700
     51 H24         -6.1900     0.5190    -1.4380 hn         1 7BY       0.310500
     52 H25         -7.4760     2.8320     0.7050 hc         1 7BY       0.052700
     53 H26         -7.6080     2.0470    -0.9020 hc         1 7BY       0.052700
     54 H27         -9.7580     1.8900     0.3350 hc         1 7BY       0.043367
     55 H28         -9.0640     0.2710     0.1020 hc         1 7BY       0.043367
     56 H29         -8.9480     1.0700     1.6870 hc         1 7BY       0.043367
     57 H1           3.8540    -4.0470     1.0530 h1         1 7BY       0.052700
@<TRIPOS>BOND
     1     1     2 ar  
     2     1     5 ar  
     3     1    12 ar  
     4     2     3 ar  
     5     2    19 ar  
     6     3     4 ar  
     7     3    20 1   
     8     4    11 ar  
     9     5    11 ar  
    10     6     7 1   
    11     6    10 1   
    12     6    29 1   
    13     6    57 1   
    14     7     8 1   
    15     7    30 1   
    16     7    31 1   
    17     8     9 1   
    18     8    32 1   
    19     8    33 1   
    20     9    10 1   
    21     9    34 1   
    22     9    35 1   
    23    10    11 1   
    24    12    13 ar  
    25    12    36 1   
    26    13    14 1   
    27    13    16 ar  
    28    14    15 1   
    29    15    37 1   
    30    15    38 1   
    31    15    39 1   
    32    16    17 1   
    33    16    19 ar  
    34    17    18 1   
    35    18    40 1   
    36    18    41 1   
    37    18    42 1   
    38    19    43 1   
    39    20    21 1   
    40    20    44 1   
    41    21    22 1   
    42    21    45 1   
    43    21    46 1   
    44    22    23 1   
    45    22    47 1   
    46    22    48 1   
    47    23    24 1   
    48    23    49 1   
    49    23    50 1   
    50    24    25 1   
    51    24    51 1   
    52    25    26 2   
    53    25    27 1   
    54    27    28 1   
    55    27    52 1   
    56    27    53 1   
    57    28    54 1   
    58    28    55 1   
    59    28    56 1   
@<TRIPOS>SUBSTRUCTURE
     1 7BY         1 TEMP              0 ****  ****    0 ROOT
