@<TRIPOS>MOLECULE
7C0
   35    35     1     0     0
SMALL
No Charge or Current Charge


@<TRIPOS>ATOM
      1 O01          1.1530    -2.5690    -1.5250 o          1 7C0      -0.712000
      2 C02          0.4140    -2.8300    -0.5910 c          1 7C0       0.818100
      3 N17         -7.3880     1.4460    -0.2340 n8         1 7C0      -0.995200
      4 C18         -6.0660     1.7110     0.3600 c3         1 7C0       0.146800
      5 C19         -4.9770     0.8030    -0.2470 c3         1 7C0      -0.078400
      6 C20         -3.5780     1.0590     0.3550 c3         1 7C0      -0.075400
      7 C22         -1.0820     0.4140     0.3570 c3         1 7C0      -0.069400
      8 O25         -0.2300    -1.8310     0.0800 os         1 7C0      -0.540100
      9 C26          0.0420    -0.4550    -0.2620 c3         1 7C0       0.249600
     10 C27          1.4230    -0.0540     0.2680 ca         1 7C0      -0.043300
     11 C28          1.7680    -0.2670     1.6200 ca         1 7C0      -0.081000
     12 C29          3.0340     0.1100     2.1010 ca         1 7C0      -0.118000
     13 C30          3.9660     0.7040     1.2340 ca         1 7C0      -0.127000
     14 C31          3.6300     0.9190    -0.1120 ca         1 7C0       0.116000
     15 Cl32         4.7960     1.6640    -1.1970 cl         1 7C0      -0.252000
     16 C33          2.3650     0.5430    -0.5940 ca         1 7C0      -0.093000
     17 H21         -7.6700     0.4860    -0.0030 hn         1 7C0       0.384500
     18 H22         -5.8080     2.7650     0.1860 h1         1 7C0       0.021700
     19 H23         -6.1280     1.5420     1.4440 h1         1 7C0       0.021700
     20 H24         -5.2500    -0.2480    -0.0860 hc         1 7C0       0.046700
     21 H25         -4.9360     0.9640    -1.3320 hc         1 7C0       0.046700
     22 H26         -3.3050     2.1100     0.1950 hc         1 7C0       0.027700
     23 H27         -3.6190     0.9010     1.4400 hc         1 7C0       0.027700
     24 H28         -2.7580    -0.8970    -0.0890 hc         1 7C0       0.052700
     25 H29         -2.4400     0.3110    -1.3330 hc         1 7C0       0.052700
     26 H30         -0.8250     1.4700     0.2060 hc         1 7C0       0.027200
     27 H31         -1.1180     0.2510     1.4410 hc         1 7C0       0.027200
     28 H32          0.0110    -0.3110    -1.3510 h1         1 7C0       0.048700
     29 H33          1.0520    -0.7290     2.2970 ha         1 7C0       0.135000
     30 H34          3.2910    -0.0580     3.1450 ha         1 7C0       0.100000
     31 H35          4.9450     0.9970     1.6040 ha         1 7C0       0.108000
     32 H36          2.1190     0.7150    -1.6390 ha         1 7C0       0.123000
     33 H2          -8.0900     2.0250     0.2430 hn         1 7C0       0.384500
     34 OXT          0.1960    -3.9680    -0.2130 o          1 7C0      -0.712000
     35 C21         -2.4820     0.1530    -0.2480 c3         1 7C0      -0.069400
@<TRIPOS>BOND
     1     1     2 1   
     2     2     8 1   
     3     2    34 1   
     4     3     4 1   
     5     3    17 1   
     6     3    33 1   
     7     4     5 1   
     8     4    18 1   
     9     4    19 1   
    10     5     6 1   
    11     5    20 1   
    12     5    21 1   
    13     6    22 1   
    14     6    23 1   
    15     6    35 1   
    16     7     9 1   
    17     7    26 1   
    18     7    27 1   
    19     7    35 1   
    20     8     9 1   
    21     9    10 1   
    22     9    28 1   
    23    10    11 ar  
    24    10    16 ar  
    25    11    12 ar  
    26    11    29 1   
    27    12    13 ar  
    28    12    30 1   
    29    13    14 ar  
    30    13    31 1   
    31    14    15 1   
    32    14    16 ar  
    33    16    32 1   
    34    24    35 1   
    35    25    35 1   
@<TRIPOS>SUBSTRUCTURE
     1 7C0         1 TEMP              0 ****  ****    0 ROOT
