@<TRIPOS>MOLECULE
7C0
   35    35     1     0     0
SMALL
bcc


@<TRIPOS>ATOM
      1 O01          1.1940    -2.6140    -1.3850 o          1 7C0      -0.552000
      2 C02          0.3750    -2.9050    -0.5060 c          1 7C0       0.498100
      3 N17         -7.2710     1.4400    -0.1800 n8         1 7C0      -0.884800
      4 C18         -5.9360     1.7660     0.3020 c3         1 7C0       0.146800
      5 C19         -4.9080     0.7730    -0.2180 c3         1 7C0      -0.078400
      6 C20         -3.4960     1.0760     0.2670 c3         1 7C0      -0.075400
      7 C22         -1.0620     0.3820     0.2830 c3         1 7C0      -0.069400
      8 O25         -0.3050    -1.8560     0.1130 os         1 7C0      -0.516900
      9 C26          0.0200    -0.5420    -0.2720 c3         1 7C0       0.226400
     10 C27          1.3740    -0.1220     0.2510 ca         1 7C0      -0.043300
     11 C28          1.8100    -0.5160     1.5130 ca         1 7C0      -0.099000
     12 C29          3.0250    -0.0680     2.0090 ca         1 7C0      -0.136000
     13 C30          3.8280     0.7830     1.2610 ca         1 7C0      -0.145000
     14 C31          3.3830     1.1710     0.0080 ca         1 7C0       0.024400
     15 CL32         4.3700     2.2300    -0.9530 cl         1 7C0      -0.160400
     16 C33          2.1730     0.7290    -0.5030 ca         1 7C0      -0.111000
     17 H21         -7.5630     0.5580     0.2260 hn         1 7C0       0.329300
     18 H22         -5.6780     2.7670    -0.0560 h1         1 7C0       0.021700
     19 H23         -5.8640     1.8080     1.4000 h1         1 7C0       0.021700
     20 H24         -5.1900    -0.2370     0.0990 hc         1 7C0       0.046700
     21 H25         -4.9350     0.7720    -1.3120 hc         1 7C0       0.046700
     22 H26         -3.2140     2.0890    -0.0430 hc         1 7C0       0.027700
     23 H27         -3.4810     1.0800     1.3630 hc         1 7C0       0.027700
     24 H28         -2.7560    -0.9290     0.0410 hc         1 7C0       0.052700
     25 H29         -2.4490     0.1040    -1.3410 hc         1 7C0       0.052700
     26 H30         -0.7890     1.4100     0.0240 hc         1 7C0       0.027200
     27 H31         -1.0580     0.3330     1.3770 hc         1 7C0       0.027200
     28 H32          0.0260    -0.4470    -1.3640 h1         1 7C0       0.048700
     29 H33          1.2000    -1.1790     2.1130 ha         1 7C0       0.153000
     30 H34          3.3560    -0.3820     2.9910 ha         1 7C0       0.118000
     31 H35          4.7760     1.1330     1.6460 ha         1 7C0       0.126000
     32 H36          1.8540     1.0400    -1.4900 ha         1 7C0       0.141000
     33 H2          -7.9310     2.1250     0.1670 hn         1 7C0       0.329300
     34 OXT          0.0370    -4.0090    -0.0670 o          1 7C0      -0.552000
     35 C21         -2.4600     0.0830    -0.2450 c3         1 7C0      -0.069400
@<TRIPOS>BOND
     1     1     2 1   
     2     2     8 1   
     3     2    34 1   
     4     3     4 1   
     5     3    17 1   
     6     3    33 1   
     7     4     5 1   
     8     4    18 1   
     9     4    19 1   
    10     5     6 1   
    11     5    20 1   
    12     5    21 1   
    13     6    22 1   
    14     6    23 1   
    15     6    35 1   
    16     7     9 1   
    17     7    26 1   
    18     7    27 1   
    19     7    35 1   
    20     8     9 1   
    21     9    10 1   
    22     9    28 1   
    23    10    11 ar  
    24    10    16 ar  
    25    11    12 ar  
    26    11    29 1   
    27    12    13 ar  
    28    12    30 1   
    29    13    14 ar  
    30    13    31 1   
    31    14    15 1   
    32    14    16 ar  
    33    16    32 1   
    34    24    35 1   
    35    25    35 1   
@<TRIPOS>SUBSTRUCTURE
     1 7C0         1 TEMP              0 ****  ****    0 ROOT
