@<TRIPOS>MOLECULE
7C1
   34    36     1     0     0
SMALL
abcg2


@<TRIPOS>ATOM
      1 C1          -3.9520    -0.9590    -0.3530 ca         1 7C1      -0.003300
      2 C2          -5.0680    -0.2340     0.0780 ca         1 7C1      -0.102000
      3 C3          -4.9570     0.9880     0.7300 ca         1 7C1      -0.092000
      4 C4          -3.7110     1.5540     0.9920 ca         1 7C1      -0.052000
      5 C5          -2.6100     0.8430     0.5700 ca         1 7C1      -0.140600
      6 C6          -2.7220    -0.3770    -0.0820 ca         1 7C1      -0.150600
      7 C7          -1.3550    -0.8560    -0.3860 c          1 7C1       0.591600
      8 C8          -1.1750     1.1760     0.7020 c          1 7C1       0.590600
      9 N9          -0.4890     0.1200     0.1110 n          1 7C1      -0.323600
     10 N20          5.8100    -0.6030     0.9060 nv         1 7C1      -1.035200
     11 O10         -1.0020    -1.8620    -0.9430 o          1 7C1      -0.475000
     12 C21         -4.1020    -2.2680    -1.0630 c3         1 7C1      -0.054800
     13 O11         -0.6660     2.1410     1.2080 o          1 7C1      -0.475000
     14 C12          0.9200     0.0390     0.0300 ca         1 7C1       0.064600
     15 C13          1.6210     0.9600    -0.7370 ca         1 7C1      -0.099500
     16 C14          3.0020     0.8820    -0.8080 ca         1 7C1      -0.081500
     17 C15          3.6930    -0.1130    -0.1210 ca         1 7C1      -0.194900
     18 C16          2.9760    -1.0300     0.6440 ca         1 7C1      -0.081500
     19 C17          1.5950    -0.9570     0.7210 ca         1 7C1      -0.099500
     20 C18          5.1780    -0.1930    -0.2280 ce         1 7C1       0.663800
     21 N19          5.8400     0.0540    -1.2920 n2         1 7C1      -0.844100
     22 H2          -6.0550    -0.6400    -0.1050 ha         1 7C1       0.121000
     23 H3          -5.8560     1.5050     1.0380 ha         1 7C1       0.123000
     24 H4          -3.6180     2.5040     1.5010 ha         1 7C1       0.140000
     25 HN20         5.3840    -0.4010     1.7950 hn         1 7C1       0.470500
     26 HN2A         6.8160    -0.5450     0.9030 hn         1 7C1       0.470500
     27 H21         -3.7230    -2.2070    -2.0830 hc         1 7C1       0.057033
     28 H21A        -3.5490    -3.0620    -0.5620 hc         1 7C1       0.057033
     29 H21B        -5.1490    -2.5600    -1.1110 hc         1 7C1       0.057033
     30 H13          1.0930     1.7340    -1.2770 ha         1 7C1       0.127500
     31 H14          3.5410     1.6150    -1.3940 ha         1 7C1       0.125500
     32 H16          3.4930    -1.8170     1.1770 ha         1 7C1       0.125500
     33 H17          1.0480    -1.6700     1.3230 ha         1 7C1       0.127500
     34 HN19         5.2170     0.2410    -2.0690 hn         1 7C1       0.389400
@<TRIPOS>BOND
     1     1     2 ar  
     2     1     6 ar  
     3     1    12 1   
     4     2     3 ar  
     5     2    22 1   
     6     3     4 ar  
     7     3    23 1   
     8     4     5 ar  
     9     4    24 1   
    10     5     6 ar  
    11     5     8 1   
    12     6     7 1   
    13     7     9 1   
    14     7    11 2   
    15     8     9 1   
    16     8    13 2   
    17     9    14 1   
    18    10    20 1   
    19    10    25 1   
    20    10    26 1   
    21    12    27 1   
    22    12    28 1   
    23    12    29 1   
    24    14    15 ar  
    25    14    19 ar  
    26    15    16 ar  
    27    15    30 1   
    28    16    17 ar  
    29    16    31 1   
    30    17    18 ar  
    31    17    20 1   
    32    18    19 ar  
    33    18    32 1   
    34    19    33 1   
    35    20    21 2   
    36    21    34 1   
@<TRIPOS>SUBSTRUCTURE
     1 7C1         1 TEMP              0 ****  ****    0 ROOT
