@<TRIPOS>MOLECULE
7C1
   34    36     1     0     0
SMALL
No Charge or Current Charge


@<TRIPOS>ATOM
      1 C1          -4.0110    -0.9990    -0.2270 ca         1 7C1      -0.003300
      2 C2          -5.1610    -0.2300     0.0690 ca         1 7C1      -0.102000
      3 C3          -5.0470     1.1040     0.5260 ca         1 7C1      -0.092000
      4 C4          -3.7800     1.6980     0.6970 ca         1 7C1      -0.052000
      5 C5          -2.6500     0.9240     0.3990 ca         1 7C1      -0.140600
      6 C6          -2.7580    -0.3850    -0.0490 ca         1 7C1      -0.150600
      7 C7          -1.3730    -0.9080    -0.2690 c          1 7C1       0.591600
      8 C8          -1.2060     1.2790     0.4860 c          1 7C1       0.590600
      9 N9          -0.5020     0.1390     0.0720 n          1 7C1      -0.323600
     10 N20          5.9100    -0.9220     0.7150 nv         1 7C1      -1.035200
     11 O10         -1.0600    -2.0150    -0.6850 o          1 7C1      -0.475000
     12 C21         -4.1400    -2.4340    -0.7190 c3         1 7C1      -0.054800
     13 O11         -0.7370     2.3430     0.8640 o          1 7C1      -0.475000
     14 C12          0.9320     0.0550     0.0050 ca         1 7C1       0.064600
     15 C13          1.6870     1.1140    -0.5320 ca         1 7C1      -0.099500
     16 C14          3.0890     1.0340    -0.6010 ca         1 7C1      -0.081500
     17 C15          3.7730    -0.1050    -0.1150 ca         1 7C1      -0.194900
     18 C16          3.0070    -1.1740     0.4060 ca         1 7C1      -0.081500
     19 C17          1.6060    -1.0910     0.4700 ca         1 7C1      -0.099500
     20 C18          5.2610    -0.2110    -0.2230 ce         1 7C1       0.663800
     21 N19          5.9510     0.4520    -1.0550 n2         1 7C1      -0.844100
     22 H2          -6.1500    -0.6660    -0.0550 ha         1 7C1       0.121000
     23 H3          -5.9440     1.6770     0.7480 ha         1 7C1       0.123000
     24 H4          -3.6830     2.7230     1.0490 ha         1 7C1       0.140000
     25 HN20         5.4100    -1.0380     1.5870 hn         1 7C1       0.470500
     26 HN2A         6.8940    -0.6960     0.7960 hn         1 7C1       0.470500
     27 H21         -3.6950    -2.5490    -1.7130 hc         1 7C1       0.057033
     28 H21A        -3.6340    -3.1290    -0.0390 hc         1 7C1       0.057033
     29 H21B        -5.1890    -2.7470    -0.7890 hc         1 7C1       0.057033
     30 H13          1.1900     2.0020    -0.9140 ha         1 7C1       0.127500
     31 H14          3.6390     1.8740    -1.0200 ha         1 7C1       0.125500
     32 H16          3.4930    -2.0820     0.7580 ha         1 7C1       0.125500
     33 H17          1.0460    -1.9220     0.8920 ha         1 7C1       0.127500
     34 HN19         5.3020     0.8880    -1.7220 hn         1 7C1       0.389400
@<TRIPOS>BOND
     1     1     2 ar  
     2     1     6 ar  
     3     1    12 1   
     4     2     3 ar  
     5     2    22 1   
     6     3     4 ar  
     7     3    23 1   
     8     4     5 ar  
     9     4    24 1   
    10     5     6 ar  
    11     5     8 1   
    12     6     7 1   
    13     7     9 1   
    14     7    11 2   
    15     8     9 1   
    16     8    13 2   
    17     9    14 1   
    18    10    20 1   
    19    10    25 1   
    20    10    26 1   
    21    12    27 1   
    22    12    28 1   
    23    12    29 1   
    24    14    15 ar  
    25    14    19 ar  
    26    15    16 ar  
    27    15    30 1   
    28    16    17 ar  
    29    16    31 1   
    30    17    18 ar  
    31    17    20 1   
    32    18    19 ar  
    33    18    32 1   
    34    19    33 1   
    35    20    21 2   
    36    21    34 1   
@<TRIPOS>SUBSTRUCTURE
     1 7C1         1 TEMP              0 ****  ****    0 ROOT
