@<TRIPOS>MOLECULE
7C2
   40    39     1     0     0
SMALL
No Charge or Current Charge


@<TRIPOS>ATOM
      1 C01          6.7090     1.6730     0.0780 c3         1 7C2      -0.086100
      2 C02          5.5160     0.7620    -0.2670 c3         1 7C2      -0.077400
      3 C03          4.1590     1.3470     0.1820 c3         1 7C2      -0.074400
      4 C04          2.9620     0.4340    -0.1640 c3         1 7C2      -0.074400
      5 C05          1.6040     1.0200     0.2900 c3         1 7C2      -0.074400
      6 C06          0.3510     0.1920    -0.1160 c3         1 7C2       0.194300
      7 C24         -0.9640     0.9050     0.2920 c3         1 7C2      -0.071400
      8 C25         -2.2460     0.1680    -0.1640 c3         1 7C2      -0.072400
      9 C26         -3.5420     0.9200     0.2130 c3         1 7C2      -0.073400
     10 C27         -4.8230     0.1880    -0.2430 c3         1 7C2      -0.079400
     11 C28         -6.1120     0.9460     0.1370 c3         1 7C2       0.146800
     12 N29         -7.3170     0.2260    -0.3110 n8         1 7C2      -0.997200
     13 O07          0.3810    -1.0790     0.5770 os         1 7C2      -0.544100
     14 O23          1.2320    -2.1570    -1.2020 o          1 7C2      -0.722000
     15 H1           6.7750     1.8340     1.1600 hc         1 7C2       0.021367
     16 H2           7.6480     1.2170    -0.2590 hc         1 7C2       0.021367
     17 H3           6.6070     2.6490    -0.4130 hc         1 7C2       0.021367
     18 H4           5.4980     0.5920    -1.3500 hc         1 7C2       0.040200
     19 H5           5.6650    -0.2160     0.2080 hc         1 7C2       0.040200
     20 H6           4.1810     1.5170     1.2650 hc         1 7C2       0.022700
     21 H7           4.0150     2.3250    -0.2940 hc         1 7C2       0.022700
     22 H8           2.9380     0.2650    -1.2480 hc         1 7C2       0.059700
     23 H9           3.1150    -0.5420     0.3120 hc         1 7C2       0.059700
     24 H10          1.6150     1.1470     1.3800 hc         1 7C2       0.017200
     25 H11          1.5050     2.0250    -0.1380 hc         1 7C2       0.017200
     26 H12          0.3330     0.0740    -1.2080 h1         1 7C2       0.057700
     27 H30         -0.9870     1.0330     1.3820 hc         1 7C2       0.020700
     28 H31         -0.9670     1.9120    -0.1430 hc         1 7C2       0.020700
     29 H32         -2.2120     0.0290    -1.2520 hc         1 7C2       0.053700
     30 H33         -2.2710    -0.8330     0.2840 hc         1 7C2       0.053700
     31 H34         -3.5740     1.0590     1.3010 hc         1 7C2       0.025200
     32 H35         -3.5210     1.9210    -0.2370 hc         1 7C2       0.025200
     33 H36         -4.7920     0.0520    -1.3310 hc         1 7C2       0.047200
     34 H37         -4.8450    -0.8120     0.2080 hc         1 7C2       0.047200
     35 H38         -6.1620     1.0690     1.2280 h1         1 7C2       0.021200
     36 H39         -6.1070     1.9420    -0.3260 h1         1 7C2       0.021200
     37 H42         -7.3700    -0.6730     0.1830 hn         1 7C2       0.384000
     38 H13         -8.1490     0.7310     0.0180 hn         1 7C2       0.384000
     39 OXT          0.9370    -3.2060     0.6430 o          1 7C2      -0.722000
     40 C08          0.8880    -2.1930    -0.0320 c          1 7C2       0.821100
@<TRIPOS>BOND
     1     1     2 1   
     2     1    15 1   
     3     1    16 1   
     4     1    17 1   
     5     2     3 1   
     6     2    18 1   
     7     2    19 1   
     8     3     4 1   
     9     3    20 1   
    10     3    21 1   
    11     4     5 1   
    12     4    22 1   
    13     4    23 1   
    14     5     6 1   
    15     5    24 1   
    16     5    25 1   
    17     6     7 1   
    18     6    13 1   
    19     6    26 1   
    20     7     8 1   
    21     7    27 1   
    22     7    28 1   
    23     8     9 1   
    24     8    29 1   
    25     8    30 1   
    26     9    10 1   
    27     9    31 1   
    28     9    32 1   
    29    10    11 1   
    30    10    33 1   
    31    10    34 1   
    32    11    12 1   
    33    11    35 1   
    34    11    36 1   
    35    12    37 1   
    36    12    38 1   
    37    13    40 1   
    38    14    40 1   
    39    39    40 1   
@<TRIPOS>SUBSTRUCTURE
     1 7C2         1 TEMP              0 ****  ****    0 ROOT
