@<TRIPOS>MOLECULE
7C2
   40    39     1     0     0
SMALL
bcc


@<TRIPOS>ATOM
      1 C01          6.5580     1.8070    -0.1900 c3         1 7C2      -0.086100
      2 C02          5.4220     0.8030    -0.3250 c3         1 7C2      -0.077400
      3 C03          4.0870     1.3510     0.1630 c3         1 7C2      -0.074400
      4 C04          2.9270     0.3790    -0.0200 c3         1 7C2      -0.074400
      5 C05          1.5980     0.9610     0.4440 c3         1 7C2      -0.074400
      6 C06          0.3780     0.1220     0.0800 c3         1 7C2       0.171100
      7 C24         -0.9220     0.8180     0.4650 c3         1 7C2      -0.071400
      8 C25         -2.1670     0.1580    -0.1130 c3         1 7C2      -0.072400
      9 C26         -3.4550     0.8560     0.3050 c3         1 7C2      -0.073400
     10 C27         -4.6970     0.2710    -0.3530 c3         1 7C2      -0.079400
     11 C28         -5.9810     0.9440     0.1060 c3         1 7C2       0.146800
     12 N29         -7.1410     0.3870    -0.5770 n8         1 7C2      -0.886800
     13 O07          0.4340    -1.1290     0.7460 os         1 7C2      -0.520900
     14 O23          0.8330    -2.2410    -1.1800 o          1 7C2      -0.562000
     15 H1           6.7170     2.0900     0.8520 hc         1 7C2       0.021367
     16 H2           7.4990     1.4040    -0.5680 hc         1 7C2       0.021367
     17 H3           6.3420     2.7200    -0.7490 hc         1 7C2       0.021367
     18 H4           5.3260     0.5000    -1.3720 hc         1 7C2       0.040200
     19 H5           5.6680    -0.1070     0.2310 hc         1 7C2       0.040200
     20 H6           4.1730     1.6260     1.2200 hc         1 7C2       0.022700
     21 H7           3.8620     2.2810    -0.3730 hc         1 7C2       0.022700
     22 H8           2.8510     0.1030    -1.0770 hc         1 7C2       0.059700
     23 H9           3.1450    -0.5470     0.5210 hc         1 7C2       0.059700
     24 H10          1.6210     1.1300     1.5270 hc         1 7C2       0.017200
     25 H11          1.4670     1.9490    -0.0110 hc         1 7C2       0.017200
     26 H12          0.3830    -0.0360    -1.0030 h1         1 7C2       0.057700
     27 H30         -0.9980     0.8730     1.5570 hc         1 7C2       0.020700
     28 H31         -0.8750     1.8540     0.1150 hc         1 7C2       0.020700
     29 H32         -2.0950     0.1570    -1.2060 hc         1 7C2       0.053700
     30 H33         -2.2120    -0.8930     0.1890 hc         1 7C2       0.053700
     31 H34         -3.5570     0.8020     1.3950 hc         1 7C2       0.025200
     32 H35         -3.3860     1.9230     0.0630 hc         1 7C2       0.025200
     33 H36         -4.6160     0.3620    -1.4410 hc         1 7C2       0.047200
     34 H37         -4.7540    -0.8020    -0.1370 hc         1 7C2       0.047200
     35 H38         -6.0440     0.8750     1.2030 h1         1 7C2       0.021200
     36 H39         -5.9280     2.0110    -0.1270 h1         1 7C2       0.021200
     37 H42         -7.2600    -0.5790    -0.2960 hn         1 7C2       0.328800
     38 H13         -7.9770     0.8630    -0.2640 hn         1 7C2       0.328800
     39 OXT          0.7490    -3.2860     0.7940 o          1 7C2      -0.562000
     40 C08          0.6950    -2.2990     0.0470 c          1 7C2       0.501100
@<TRIPOS>BOND
     1     1     2 1   
     2     1    15 1   
     3     1    16 1   
     4     1    17 1   
     5     2     3 1   
     6     2    18 1   
     7     2    19 1   
     8     3     4 1   
     9     3    20 1   
    10     3    21 1   
    11     4     5 1   
    12     4    22 1   
    13     4    23 1   
    14     5     6 1   
    15     5    24 1   
    16     5    25 1   
    17     6     7 1   
    18     6    13 1   
    19     6    26 1   
    20     7     8 1   
    21     7    27 1   
    22     7    28 1   
    23     8     9 1   
    24     8    29 1   
    25     8    30 1   
    26     9    10 1   
    27     9    31 1   
    28     9    32 1   
    29    10    11 1   
    30    10    33 1   
    31    10    34 1   
    32    11    12 1   
    33    11    35 1   
    34    11    36 1   
    35    12    37 1   
    36    12    38 1   
    37    13    40 1   
    38    14    40 1   
    39    39    40 1   
@<TRIPOS>SUBSTRUCTURE
     1 7C2         1 TEMP              0 ****  ****    0 ROOT
