@<TRIPOS>MOLECULE
7C3
   20    19     1     0     0
SMALL
abcg2


@<TRIPOS>ATOM
      1 OXT         -3.7680    -0.2720     0.0210 o          1 7C3      -0.699000
      2 C           -2.7380     0.4170     0.0060 c          1 7C3       0.647000
      3 O           -2.6290     1.6550    -0.0000 o          1 7C3      -0.699000
      4 CA          -1.3960    -0.3750    -0.0100 c          1 7C3       0.427100
      5 OA          -1.4000    -1.5840    -0.0500 o          1 7C3      -0.569100
      6 CB          -0.1200     0.4200     0.0310 c3         1 7C3      -0.190400
      7 CG           1.1510    -0.4140     0.0080 c3         1 7C3      -0.068400
      8 CD           2.4030     0.4530     0.0400 c3         1 7C3      -0.080400
      9 CE           3.6830    -0.3680     0.0100 c3         1 7C3       0.144800
     10 NZ           4.8580     0.4930     0.0450 n8         1 7C3      -0.998200
     11 H2          -0.1340     1.1240    -0.8080 hc         1 7C3       0.061700
     12 H3          -0.1480     1.0570     0.9220 hc         1 7C3       0.061700
     13 H4           1.1630    -1.0990     0.8610 hc         1 7C3       0.036200
     14 H5           1.1670    -1.0410    -0.8880 hc         1 7C3       0.036200
     15 H6           2.3940     1.1380    -0.8160 hc         1 7C3       0.039700
     16 H7           2.4010     1.0810     0.9370 hc         1 7C3       0.039700
     17 H8           3.7090    -1.0190     0.8880 h1         1 7C3       0.023200
     18 H9           3.6550    -1.0350    -0.8650 h1         1 7C3       0.023200
     19 H10          5.6950    -0.0770     0.0530 hn         1 7C3       0.381500
     20 H11          4.9020     1.0260    -0.8160 hn         1 7C3       0.381500
@<TRIPOS>BOND
     1     1     2 1   
     2     2     3 1   
     3     2     4 1   
     4     4     5 2   
     5     4     6 1   
     6     6     7 1   
     7     6    11 1   
     8     6    12 1   
     9     7     8 1   
    10     7    13 1   
    11     7    14 1   
    12     8     9 1   
    13     8    15 1   
    14     8    16 1   
    15     9    10 1   
    16     9    17 1   
    17     9    18 1   
    18    10    19 1   
    19    10    20 1   
@<TRIPOS>SUBSTRUCTURE
     1 7C3         1 TEMP              0 ****  ****    0 ROOT
