@<TRIPOS>MOLECULE
7C3
   20    19     1     0     0
SMALL
No Charge or Current Charge


@<TRIPOS>ATOM
      1 OXT         -2.9890    -0.9560     1.1680 o          1 7C3      -0.699000
      2 C           -2.4040     0.0280     0.7190 c          1 7C3       0.647000
      3 O           -2.5100     1.1490     1.2100 o          1 7C3      -0.699000
      4 CA          -1.4720    -0.1620    -0.5930 c          1 7C3       0.427100
      5 OA          -1.7840    -0.9100    -1.5250 o          1 7C3      -0.569100
      6 CB          -0.1460     0.6260    -0.6420 c3         1 7C3      -0.190400
      7 CG           1.0340    -0.2340    -0.1310 c3         1 7C3      -0.068400
      8 CD           2.3840     0.5160    -0.1530 c3         1 7C3      -0.080400
      9 CE           3.5570    -0.3480     0.3550 c3         1 7C3       0.144800
     10 NZ           4.8310     0.3930     0.3230 n8         1 7C3      -0.998200
     11 H2           0.0580     0.9330    -1.6750 hc         1 7C3       0.061700
     12 H3          -0.2150     1.5030     0.0110 hc         1 7C3       0.061700
     13 H4           0.8220    -0.5650     0.8930 hc         1 7C3       0.036200
     14 H5           1.1150    -1.1380    -0.7490 hc         1 7C3       0.036200
     15 H6           2.5950     0.8470    -1.1780 hc         1 7C3       0.039700
     16 H7           2.3050     1.4180     0.4670 hc         1 7C3       0.039700
     17 H8           3.3630    -0.6670     1.3880 h1         1 7C3       0.023200
     18 H9           3.6570    -1.2440    -0.2730 h1         1 7C3       0.023200
     19 H10          5.5920    -0.2380     0.6030 hn         1 7C3       0.381500
     20 H11          5.0560     0.6260    -0.6520 hn         1 7C3       0.381500
@<TRIPOS>BOND
     1     1     2 1   
     2     2     3 1   
     3     2     4 1   
     4     4     5 2   
     5     4     6 1   
     6     6     7 1   
     7     6    11 1   
     8     6    12 1   
     9     7     8 1   
    10     7    13 1   
    11     7    14 1   
    12     8     9 1   
    13     8    15 1   
    14     8    16 1   
    15     9    10 1   
    16     9    17 1   
    17     9    18 1   
    18    10    19 1   
    19    10    20 1   
@<TRIPOS>SUBSTRUCTURE
     1 7C3         1 TEMP              0 ****  ****    0 ROOT
