@<TRIPOS>MOLECULE
7C4
  168   171     1     0     0
SMALL
No Charge or Current Charge


@<TRIPOS>ATOM
      1 C10        267.7820   328.1590   198.1180 ca         1 7C4      -0.073500
      2 C13        269.0820   327.6380   198.2340 ca         1 7C4      -0.168000
      3 C22        269.0060   327.9690   200.6420 ca         1 7C4      -0.168000
      4 C24        267.7050   328.4880   200.5260 ca         1 7C4      -0.073500
      5 C28        265.9910   332.2150   200.6780 c          1 7C4       0.593100
      6 C01        265.6790   330.6670   198.6730 c3         1 7C4       0.063700
      7 N02        266.5420   331.5300   199.5530 n          1 7C4      -0.391800
      8 N05        266.3570   334.2050   202.2290 n          1 7C4      -0.395800
      9 C07        267.0880   328.5890   199.2640 ca         1 7C4      -0.120300
     10 N08        264.3020   337.3760   201.8400 ns         1 7C4      -0.488900
     11 N11        265.2860   335.5480   197.6010 ns         1 7C4      -0.487900
     12 C14        269.7010   327.5410   199.4900 ca         1 7C4       0.137100
     13 N15        261.7650   335.3330   198.4280 ns         1 7C4      -0.475900
     14 N17        259.9130   338.4610   199.1530 n          1 7C4      -0.388800
     15 O18        265.1150   339.9380   199.2080 os         1 7C4      -0.436100
     16 N20        259.3100   341.2580   196.6020 n          1 7C4      -0.387800
     17 O23        267.6000   338.2370   196.3600 oh         1 7C4      -0.674000
     18 C30        267.0160   333.1210   201.4520 c5         1 7C4       0.037700
     19 O31        261.5590   341.4030   196.1810 o          1 7C4      -0.629100
     20 C32        267.6620   332.2690   202.5880 c5         1 7C4      -0.083400
     21 O33        261.3280   342.8610   193.8550 oh         1 7C4      -0.656000
     22 C34        268.0130   333.3450   203.6430 c5         1 7C4      -0.093400
     23 O35        264.1930   332.5250   198.1260 os         1 7C4      -0.436100
     24 C36        266.7290   334.2130   203.6590 c5         1 7C4       0.107000
     25 C38        265.6280   335.2370   201.5990 c          1 7C4       0.616100
     26 C39        264.6320   336.0680   202.4610 c3         1 7C4       0.043700
     27 C40        263.3500   335.2390   202.7480 c3         1 7C4      -0.088400
     28 C41        262.2440   335.9470   203.5810 c3         1 7C4      -0.060700
     29 C42        262.7350   336.3820   204.9830 c3         1 7C4      -0.092600
     30 C43        260.9920   335.0500   203.7030 c3         1 7C4      -0.092600
     31 C44        264.5540   338.5900   202.4410 c          1 7C4       0.609100
     32 C45        263.8570   339.8030   201.8370 c3         1 7C4      -0.239700
     33 C46        262.7690   340.3400   202.8090 c3         1 7C4      -0.077100
     34 C47        264.9200   340.8660   201.5040 c          1 7C4       0.593100
     35 C48        265.2630   341.1400   200.0100 c3         1 7C4       0.070300
     36 C49        264.4050   342.2900   199.3770 c3         1 7C4      -0.067700
     37 C50        264.5880   343.6360   200.1170 c3         1 7C4      -0.092100
     38 C51        262.9050   341.9460   199.2280 c3         1 7C4      -0.092100
     39 C52        265.7160   339.8640   197.9770 c          1 7C4       0.607100
     40 C53        265.3870   338.5640   197.2660 c3         1 7C4      -0.179400
     41 C54        266.6230   337.6400   197.2260 c3         1 7C4       0.167300
     42 C55        266.3130   336.1790   196.7580 c3         1 7C4       0.117700
     43 C56        267.5660   335.2490   196.6280 c3         1 7C4      -0.058700
     44 C57        268.4220   335.2090   197.9230 c3         1 7C4      -0.089100
     45 C58        267.1680   333.8230   196.1390 c3         1 7C4      -0.078400
     46 C59        268.3450   332.9390   195.6730 c3         1 7C4      -0.088100
     47 C60        263.9610   335.3990   197.2530 c          1 7C4       0.589100
     48 C61        263.0820   334.6670   198.2980 c3         1 7C4       0.025700
     49 C62        261.5590   336.5090   199.1180 c          1 7C4       0.595100
     50 C63        260.0760   336.9670   199.1930 c3         1 7C4       0.033700
     51 C64        259.3670   336.2690   200.3990 c3         1 7C4      -0.074400
     52 C65        257.8250   336.0850   200.2870 c3         1 7C4      -0.057700
     53 C66        257.0500   337.4160   200.1830 c3         1 7C4      -0.089600
     54 C67        257.4180   335.1090   199.1590 c3         1 7C4      -0.089600
     55 C69        259.8160   339.0960   197.8790 c          1 7C4       0.592100
     56 C70        259.4730   340.6320   197.9470 c5         1 7C4       0.035700
     57 C71        258.0600   340.8850   198.5670 c5         1 7C4      -0.081400
     58 C72        257.1350   340.7630   197.3320 c5         1 7C4      -0.093400
     59 C73        257.9060   341.6000   196.2820 c5         1 7C4       0.112000
     60 C75        260.1650   342.1550   194.3450 c3         1 7C4       0.102300
     61 C76        259.8050   341.0470   193.3300 c3         1 7C4      -0.115100
     62 C77        262.9100   333.1610   197.9710 c3         1 7C4       0.170300
     63 C78        262.3900   332.8540   196.5450 c3         1 7C4      -0.114100
     64 C79        264.2260   331.1830   198.4370 c          1 7C4       0.606100
     65 H1         267.3180   328.2340   197.1360 ha         1 7C4       0.113500
     66 H2         269.6140   327.3100   197.3450 ha         1 7C4       0.124000
     67 H3         269.4560   327.9080   201.6290 ha         1 7C4       0.124000
     68 H4         267.1800   328.8230   201.4190 ha         1 7C4       0.113500
     69 H5         268.6050   331.2660   200.0210 h1         1 7C4       0.049700
     70 H6         268.1960   330.9710   198.3210 h1         1 7C4       0.049700
     71 H7         268.2520   332.6340   198.9220 h1         1 7C4       0.049700
     72 H8         266.1230   330.6920   197.6700 h1         1 7C4       0.077700
     73 H9         265.1610   329.1100   200.0960 hc         1 7C4       0.076200
     74 H10        265.1060   328.5800   198.4280 hc         1 7C4       0.076200
     75 H11        263.7190   337.3780   201.0020 hn         1 7C4       0.363500
     76 H12        265.5460   335.2580   198.5430 hn         1 7C4       0.352500
     77 H13        260.9550   334.9050   197.9950 hn         1 7C4       0.326500
     78 H14        272.6960   326.4590   200.5910 h1         1 7C4       0.042700
     79 H15        271.8400   327.8630   201.2600 h1         1 7C4       0.042700
     80 H16        271.1700   326.2220   201.4690 h1         1 7C4       0.042700
     81 H17        267.6470   339.1940   196.5890 ho         1 7C4       0.471000
     82 H18        267.7600   333.5570   200.7780 h1         1 7C4       0.085700
     83 H19        266.9520   331.5420   203.0020 hc         1 7C4       0.059200
     84 H20        268.5410   331.7060   202.2540 hc         1 7C4       0.059200
     85 H22        268.2430   332.9200   204.6260 hc         1 7C4       0.061200
     86 H23        268.8820   333.9360   203.3290 hc         1 7C4       0.061200
     87 H24        266.9350   335.2210   204.0420 h1         1 7C4       0.060700
     88 H25        265.9380   333.7560   204.2690 h1         1 7C4       0.060700
     89 H26        265.1280   336.2560   203.4190 h1         1 7C4       0.090700
     90 H27        262.9190   334.9390   201.7840 hc         1 7C4       0.058700
     91 H28        263.6350   334.3090   203.2550 hc         1 7C4       0.058700
     92 H29        261.9350   336.8520   203.0420 hc         1 7C4       0.042700
     93 H30        261.9200   336.8480   205.5490 hc         1 7C4       0.036200
     94 H31        263.0980   335.5180   205.5540 hc         1 7C4       0.036200
     95 H32        263.5470   337.1130   204.9120 hc         1 7C4       0.036200
     96 H33        260.1780   335.5850   204.2070 hc         1 7C4       0.036200
     97 H34        260.6330   334.7430   202.7150 hc         1 7C4       0.036200
     98 H35        261.2160   334.1440   204.2800 hc         1 7C4       0.036200
     99 H36        263.3660   339.4810   200.9140 hc         1 7C4       0.099700
    100 H37        262.0240   339.5640   203.0200 hc         1 7C4       0.046033
    101 H38        263.2120   340.6480   203.7650 hc         1 7C4       0.046033
    102 H39        262.2480   341.2050   202.3850 hc         1 7C4       0.046033
    103 H40        266.3150   341.4540   200.0130 h1         1 7C4       0.095700
    104 H41        264.7820   342.4600   198.3620 hc         1 7C4       0.066700
    105 H42        265.6520   343.8920   200.2010 hc         1 7C4       0.040533
    106 H43        264.0900   344.4470   199.5700 hc         1 7C4       0.040533
    107 H44        264.1610   343.5990   201.1260 hc         1 7C4       0.040533
    108 H45        262.3940   342.7190   198.6420 hc         1 7C4       0.040533
    109 H46        262.7680   340.9890   198.7110 hc         1 7C4       0.040533
    110 H47        262.4130   341.8910   200.2040 hc         1 7C4       0.040533
    111 H48        265.0600   338.7840   196.2440 hc         1 7C4       0.107200
    112 H49        264.5730   338.0770   197.8110 hc         1 7C4       0.107200
    113 H50        267.0180   337.5860   198.2500 h1         1 7C4       0.041700
    114 H51        265.9010   336.2670   195.7440 h1         1 7C4       0.088700
    115 H52        268.2000   335.6830   195.8450 hc         1 7C4       0.069700
    116 H53        268.8100   336.2030   198.1730 hc         1 7C4       0.031700
    117 H54        267.8310   334.8520   198.7720 hc         1 7C4       0.031700
    118 H55        269.2930   334.5550   197.8080 hc         1 7C4       0.031700
    119 H56        266.4670   333.9190   195.3000 hc         1 7C4       0.045700
    120 H57        266.6280   333.2950   196.9340 hc         1 7C4       0.045700
    121 H58        267.9680   331.9910   195.2710 hc         1 7C4       0.028700
    122 H59        268.9180   333.4400   194.8830 hc         1 7C4       0.028700
    123 H60        269.0240   332.7030   196.4990 hc         1 7C4       0.028700
    124 H61        263.5870   334.7390   199.2680 h1         1 7C4       0.104700
    125 H62        259.6140   336.5570   198.2890 h1         1 7C4       0.094700
    126 H63        259.7960   335.2650   200.5110 hc         1 7C4       0.051700
    127 H64        259.6010   336.7810   201.3390 hc         1 7C4       0.051700
    128 H65        257.5100   335.6170   201.2280 hc         1 7C4       0.045700
    129 H66        257.3670   338.1160   200.9660 hc         1 7C4       0.036033
    130 H67        257.2080   337.8860   199.2060 hc         1 7C4       0.036033
    131 H68        255.9730   337.2430   200.3010 hc         1 7C4       0.036033
    132 H69        257.9610   334.1600   199.2480 hc         1 7C4       0.036033
    133 H70        256.3450   334.8860   199.2150 hc         1 7C4       0.036033
    134 H71        257.6200   335.5320   198.1680 hc         1 7C4       0.036033
    135 H75        260.2540   341.1450   198.5180 h1         1 7C4       0.082700
    136 H76        258.0020   341.8920   198.9960 hc         1 7C4       0.058700
    137 H77        257.7860   340.1880   199.3630 hc         1 7C4       0.058700
    138 H78        256.1260   341.1500   197.5160 hc         1 7C4       0.064700
    139 H79        257.0330   339.7200   197.0110 hc         1 7C4       0.064700
    140 H80        257.6150   341.3260   195.2610 h1         1 7C4       0.053200
    141 H81        257.7310   342.6760   196.4190 h1         1 7C4       0.053200
    142 H82        259.3180   342.8510   194.4130 h1         1 7C4       0.066700
    143 H83        258.9240   340.4820   193.6530 hc         1 7C4       0.053700
    144 H84        259.5890   341.4810   192.3460 hc         1 7C4       0.053700
    145 H85        260.6360   340.3400   193.2190 hc         1 7C4       0.053700
    146 H86        262.1950   332.7610   198.7040 h1         1 7C4       0.072700
    147 H87        261.4780   333.4230   196.3300 hc         1 7C4       0.056033
    148 H88        263.1410   333.1080   195.7870 hc         1 7C4       0.056033
    149 H89        262.1490   331.7900   196.4370 hc         1 7C4       0.056033
    150 O03        270.9800   327.0250   199.5400 os         1 7C4      -0.348100
    151 C04        265.6890   329.1820   199.1370 c3         1 7C4      -0.037100
    152 O06        264.8220   332.0700   201.0180 o          1 7C4      -0.612100
    153 C26        267.9810   331.6080   199.1870 c3         1 7C4       0.090300
    154 O09        265.7240   335.3950   200.3860 o          1 7C4      -0.648100
    155 O12        265.2550   338.6750   203.4370 o          1 7C4      -0.615100
    156 O16        265.5030   341.4780   202.3940 o          1 7C4      -0.496100
    157 C19        271.7030   326.8870   200.7770 c3         1 7C4       0.148900
    158 O21        266.4490   340.7190   197.5010 o          1 7C4      -0.520000
    159 O25        263.5200   335.8350   196.1970 o          1 7C4      -0.616100
    160 O37        263.2260   330.4790   198.5350 o          1 7C4      -0.480000
    161 C68        260.2940   339.2240   200.3740 c3         1 7C4       0.094300
    162 O27        262.4890   337.1170   199.6340 o          1 7C4      -0.634100
    163 C74        260.4130   341.5750   195.7780 c          1 7C4       0.573100
    164 O29        259.9210   338.4530   196.8390 o          1 7C4      -0.591100
    165 H21        262.0780   342.5550   194.4190 ho         1 7C4       0.467000
    166 H72        260.7880   338.5720   201.1030 h1         1 7C4       0.044367
    167 H73        261.0040   340.0180   200.1240 h1         1 7C4       0.044367
    168 H74        259.4050   339.6610   200.8430 h1         1 7C4       0.044367
@<TRIPOS>BOND
     1     1     2 ar  
     2     1     9 ar  
     3     1    65 1   
     4     2    12 ar  
     5     2    66 1   
     6     3     4 ar  
     7     3    12 ar  
     8     3    67 1   
     9     4     9 ar  
    10     4    68 1   
    11     5     7 1   
    12     5    18 1   
    13     5   152 2   
    14     6     7 1   
    15     6    64 1   
    16     6    72 1   
    17     6   151 1   
    18     7   153 1   
    19     8    18 1   
    20     8    24 1   
    21     8    25 1   
    22     9   151 1   
    23    10    26 1   
    24    10    31 1   
    25    10    75 1   
    26    11    42 1   
    27    11    47 1   
    28    11    76 1   
    29    12   150 1   
    30    13    48 1   
    31    13    49 1   
    32    13    77 1   
    33    14    50 1   
    34    14    55 1   
    35    14   161 1   
    36    15    35 1   
    37    15    39 1   
    38    16    56 1   
    39    16    59 1   
    40    16   163 1   
    41    17    41 1   
    42    17    81 1   
    43    18    20 1   
    44    18    82 1   
    45    19   163 2   
    46    20    22 1   
    47    20    83 1   
    48    20    84 1   
    49    21    60 1   
    50    21   165 1   
    51    22    24 1   
    52    22    85 1   
    53    22    86 1   
    54    23    62 1   
    55    23    64 1   
    56    24    87 1   
    57    24    88 1   
    58    25    26 1   
    59    25   154 2   
    60    26    27 1   
    61    26    89 1   
    62    27    28 1   
    63    27    90 1   
    64    27    91 1   
    65    28    29 1   
    66    28    30 1   
    67    28    92 1   
    68    29    93 1   
    69    29    94 1   
    70    29    95 1   
    71    30    96 1   
    72    30    97 1   
    73    30    98 1   
    74    31    32 1   
    75    31   155 2   
    76    32    33 1   
    77    32    34 1   
    78    32    99 1   
    79    33   100 1   
    80    33   101 1   
    81    33   102 1   
    82    34    35 1   
    83    34   156 2   
    84    35    36 1   
    85    35   103 1   
    86    36    37 1   
    87    36    38 1   
    88    36   104 1   
    89    37   105 1   
    90    37   106 1   
    91    37   107 1   
    92    38   108 1   
    93    38   109 1   
    94    38   110 1   
    95    39    40 1   
    96    39   158 2   
    97    40    41 1   
    98    40   111 1   
    99    40   112 1   
   100    41    42 1   
   101    41   113 1   
   102    42    43 1   
   103    42   114 1   
   104    43    44 1   
   105    43    45 1   
   106    43   115 1   
   107    44   116 1   
   108    44   117 1   
   109    44   118 1   
   110    45    46 1   
   111    45   119 1   
   112    45   120 1   
   113    46   121 1   
   114    46   122 1   
   115    46   123 1   
   116    47    48 1   
   117    47   159 2   
   118    48    62 1   
   119    48   124 1   
   120    49    50 1   
   121    49   162 2   
   122    50    51 1   
   123    50   125 1   
   124    51    52 1   
   125    51   126 1   
   126    51   127 1   
   127    52    53 1   
   128    52    54 1   
   129    52   128 1   
   130    53   129 1   
   131    53   130 1   
   132    53   131 1   
   133    54   132 1   
   134    54   133 1   
   135    54   134 1   
   136    55    56 1   
   137    55   164 2   
   138    56    57 1   
   139    56   135 1   
   140    57    58 1   
   141    57   136 1   
   142    57   137 1   
   143    58    59 1   
   144    58   138 1   
   145    58   139 1   
   146    59   140 1   
   147    59   141 1   
   148    60    61 1   
   149    60   142 1   
   150    60   163 1   
   151    61   143 1   
   152    61   144 1   
   153    61   145 1   
   154    62    63 1   
   155    62   146 1   
   156    63   147 1   
   157    63   148 1   
   158    63   149 1   
   159    64   160 2   
   160    69   153 1   
   161    70   153 1   
   162    71   153 1   
   163    73   151 1   
   164    74   151 1   
   165    78   157 1   
   166    79   157 1   
   167    80   157 1   
   168   150   157 1   
   169   161   166 1   
   170   161   167 1   
   171   161   168 1   
@<TRIPOS>SUBSTRUCTURE
     1 7C4         1 TEMP              0 ****  ****    0 ROOT
