@<TRIPOS>MOLECULE
7C4
  168   171     1     0     0
SMALL
abcg2


@<TRIPOS>ATOM
      1 C10        267.6630   328.4180   198.3540 ca         1 7C4      -0.073500
      2 C13        268.9660   327.9550   198.3280 ca         1 7C4      -0.168000
      3 C22        269.2240   328.5610   200.6480 ca         1 7C4      -0.168000
      4 C24        267.9080   329.0220   200.6520 ca         1 7C4      -0.073500
      5 C28        266.1320   332.5040   200.5070 c          1 7C4       0.593100
      6 C01        265.6230   330.8900   198.7960 c3         1 7C4       0.063700
      7 N02        266.5150   331.9070   199.3590 n          1 7C4      -0.391800
      8 N05        266.3490   334.3870   202.0620 n          1 7C4      -0.395800
      9 C07        267.1100   328.9680   199.5160 ca         1 7C4      -0.120300
     10 N08        264.1340   337.2930   201.8730 ns         1 7C4      -0.488900
     11 N11        264.8670   335.6120   197.4900 ns         1 7C4      -0.487900
     12 C14        269.7600   328.0280   199.4770 ca         1 7C4       0.137100
     13 N15        261.5330   335.1950   198.6770 ns         1 7C4      -0.475900
     14 N17        259.8060   338.2890   199.2270 n          1 7C4      -0.388800
     15 O18        264.6870   339.9710   199.5340 os         1 7C4      -0.436100
     16 N20        260.1230   340.6530   196.4640 n          1 7C4      -0.387800
     17 O23        266.9900   338.3510   196.3000 oh         1 7C4      -0.674000
     18 C30        267.0970   333.4670   201.2050 c5         1 7C4       0.037700
     19 O31        262.2410   340.1340   197.0390 o          1 7C4      -0.629100
     20 C32        268.0170   332.7000   202.1830 c5         1 7C4      -0.083400
     21 O33        263.2960   341.3420   194.9430 oh         1 7C4      -0.656000
     22 C34        268.0330   333.5670   203.4460 c5         1 7C4      -0.093400
     23 O35        264.0730   332.6150   198.2600 os         1 7C4      -0.436100
     24 C36        266.6270   334.1580   203.4830 c5         1 7C4       0.107000
     25 C38        265.5300   335.2920   201.5110 c          1 7C4       0.616100
     26 C39        264.5630   336.0280   202.4340 c3         1 7C4       0.043700
     27 C40        263.3540   335.0990   202.6700 c3         1 7C4      -0.088400
     28 C41        262.2260   335.7020   203.5130 c3         1 7C4      -0.060700
     29 C42        262.7060   336.1660   204.8880 c3         1 7C4      -0.092600
     30 C43        261.0960   334.6790   203.6490 c3         1 7C4      -0.092600
     31 C44        264.4270   338.4680   202.4550 c          1 7C4       0.609100
     32 C45        263.5630   339.6510   201.9880 c3         1 7C4      -0.239700
     33 C46        262.5110   339.9300   203.0690 c3         1 7C4      -0.077100
     34 C47        264.4440   340.8650   201.7440 c          1 7C4       0.593100
     35 C48        264.9630   341.1380   200.3380 c3         1 7C4       0.070300
     36 C49        264.3130   342.3790   199.6870 c3         1 7C4      -0.067700
     37 C50        264.8510   343.6790   200.2800 c3         1 7C4      -0.092100
     38 C51        262.7860   342.3210   199.7290 c3         1 7C4      -0.092100
     39 C52        265.5020   339.6850   198.5140 c          1 7C4       0.607100
     40 C53        265.0290   338.4870   197.7440 c3         1 7C4      -0.179400
     41 C54        266.1970   337.6380   197.2470 c3         1 7C4       0.167300
     42 C55        265.7160   336.3500   196.5670 c3         1 7C4       0.117700
     43 C56        266.8690   335.4760   196.0300 c3         1 7C4      -0.058700
     44 C57        267.9430   335.2130   197.0870 c3         1 7C4      -0.089100
     45 C58        266.3100   334.1790   195.4280 c3         1 7C4      -0.078400
     46 C59        267.3120   333.4100   194.5710 c3         1 7C4      -0.088100
     47 C60        263.5520   335.4420   197.3060 c          1 7C4       0.589100
     48 C61        262.8560   334.6600   198.4340 c3         1 7C4       0.025700
     49 C62        261.3500   336.3970   199.2460 c          1 7C4       0.595100
     50 C63        259.8910   336.8360   199.3840 c3         1 7C4       0.033700
     51 C64        259.2810   336.2600   200.6690 c3         1 7C4      -0.074400
     52 C65        257.7470   336.3100   200.7830 c3         1 7C4      -0.057700
     53 C66        257.1780   337.7150   200.9910 c3         1 7C4      -0.089600
     54 C67        257.0600   335.6100   199.6090 c3         1 7C4      -0.089600
     55 C69        259.6890   338.7550   197.9600 c          1 7C4       0.592100
     56 C70        259.6130   340.2740   197.7790 c5         1 7C4       0.035700
     57 C71        258.1560   340.7710   197.7550 c5         1 7C4      -0.081400
     58 C72        257.7800   340.7160   196.2720 c5         1 7C4      -0.093400
     59 C73        259.0660   341.1280   195.5560 c5         1 7C4       0.112000
     60 C75        261.9420   340.9240   194.8130 c3         1 7C4       0.102300
     61 C76        261.8300   339.7230   193.8740 c3         1 7C4      -0.115100
     62 C77        262.7350   333.1590   198.1330 c3         1 7C4       0.170300
     63 C78        262.1720   332.8000   196.7700 c3         1 7C4      -0.114100
     64 C79        264.1730   331.3620   198.7210 c          1 7C4       0.606100
     65 H1         267.0630   328.3610   197.4520 ha         1 7C4       0.113500
     66 H2         269.3890   327.5320   197.4260 ha         1 7C4       0.124000
     67 H3         269.8120   328.6260   201.5520 ha         1 7C4       0.124000
     68 H4         267.5040   329.4410   201.5660 ha         1 7C4       0.113500
     69 H5         268.3530   332.9040   199.1200 h1         1 7C4       0.049700
     70 H6         268.4230   331.1590   198.8670 h1         1 7C4       0.049700
     71 H7         267.6760   332.2100   197.6490 h1         1 7C4       0.049700
     72 H8         265.9360   330.7590   197.7570 h1         1 7C4       0.077700
     73 H9         265.3580   329.6550   200.5360 hc         1 7C4       0.076200
     74 H10        265.0320   328.8510   199.0080 hc         1 7C4       0.076200
     75 H11        263.4560   337.2670   201.1170 hn         1 7C4       0.363500
     76 H12        265.2500   335.3490   198.3910 hn         1 7C4       0.352500
     77 H13        260.7380   334.7420   198.2540 hn         1 7C4       0.326500
     78 H14        272.8260   327.1710   200.1970 h1         1 7C4       0.042700
     79 H15        272.0250   328.6240   200.8460 h1         1 7C4       0.042700
     80 H16        271.4570   327.0030   201.3260 h1         1 7C4       0.042700
     81 H17        267.2050   339.2010   196.7140 ho         1 7C4       0.471000
     82 H18        267.6680   334.0480   200.4850 h1         1 7C4       0.085700
     83 H19        267.5850   331.7240   202.4080 hc         1 7C4       0.059200
     84 H20        269.0050   332.5380   201.7550 hc         1 7C4       0.059200
     85 H22        268.2640   332.9940   204.3430 hc         1 7C4       0.061200
     86 H23        268.7660   334.3700   203.3500 hc         1 7C4       0.061200
     87 H24        266.5720   335.0860   204.0450 h1         1 7C4       0.060700
     88 H25        265.9090   333.4480   203.9040 h1         1 7C4       0.060700
     89 H26        265.0470   336.2560   203.3790 h1         1 7C4       0.090700
     90 H27        262.9510   334.8020   201.6980 hc         1 7C4       0.058700
     91 H28        263.7180   334.1870   203.1500 hc         1 7C4       0.058700
     92 H29        261.8320   336.5700   202.9770 hc         1 7C4       0.042700
     93 H30        261.8700   336.5510   205.4750 hc         1 7C4       0.036200
     94 H31        263.1490   335.3320   205.4420 hc         1 7C4       0.036200
     95 H32        263.4530   336.9570   204.8180 hc         1 7C4       0.036200
     96 H33        260.2450   335.1060   204.1830 hc         1 7C4       0.036200
     97 H34        260.7480   334.3430   202.6700 hc         1 7C4       0.036200
     98 H35        261.4380   333.8010   204.2050 hc         1 7C4       0.036200
     99 H36        263.0760   339.3750   201.0570 hc         1 7C4       0.099700
    100 H37        261.8990   339.0420   203.2240 hc         1 7C4       0.046033
    101 H38        262.9860   340.2020   204.0090 hc         1 7C4       0.046033
    102 H39        261.8610   340.7470   202.7540 hc         1 7C4       0.046033
    103 H40        266.0420   341.2780   200.3980 h1         1 7C4       0.095700
    104 H41        264.6290   342.3320   198.6410 hc         1 7C4       0.066700
    105 H42        265.9420   343.7120   200.2410 hc         1 7C4       0.040533
    106 H43        264.4620   344.5260   199.7110 hc         1 7C4       0.040533
    107 H44        264.5440   343.7990   201.3190 hc         1 7C4       0.040533
    108 H45        262.3670   343.1550   199.1630 hc         1 7C4       0.040533
    109 H46        262.4140   341.3990   199.2850 hc         1 7C4       0.040533
    110 H47        262.4140   342.3960   200.7530 hc         1 7C4       0.040533
    111 H48        264.4450   338.8580   196.8980 hc         1 7C4       0.107200
    112 H49        264.3560   337.9080   198.3720 hc         1 7C4       0.107200
    113 H50        266.8140   337.3690   198.1120 h1         1 7C4       0.041700
    114 H51        265.0820   336.6320   195.7260 h1         1 7C4       0.088700
    115 H52        267.3250   336.0500   195.2180 hc         1 7C4       0.069700
    116 H53        268.4630   336.1300   197.3660 hc         1 7C4       0.031700
    117 H54        267.5100   334.7830   197.9910 hc         1 7C4       0.031700
    118 H55        268.6910   334.5110   196.7180 hc         1 7C4       0.031700
    119 H56        265.4350   334.4270   194.8180 hc         1 7C4       0.045700
    120 H57        265.9460   333.5360   196.2330 hc         1 7C4       0.045700
    121 H58        266.8470   332.5240   194.1330 hc         1 7C4       0.028700
    122 H59        267.6860   334.0310   193.7520 hc         1 7C4       0.028700
    123 H60        268.1710   333.0750   195.1540 hc         1 7C4       0.028700
    124 H61        263.4420   334.7650   199.3450 h1         1 7C4       0.104700
    125 H62        259.3530   336.4180   198.5370 h1         1 7C4       0.094700
    126 H63        259.5780   335.2090   200.6910 hc         1 7C4       0.051700
    127 H64        259.7370   336.7140   201.5500 hc         1 7C4       0.051700
    128 H65        257.5180   335.7330   201.6860 hc         1 7C4       0.045700
    129 H66        257.6560   338.2180   201.8330 hc         1 7C4       0.036033
    130 H67        257.3120   338.3350   200.1030 hc         1 7C4       0.036033
    131 H68        256.1070   337.6580   201.1970 hc         1 7C4       0.036033
    132 H69        257.4740   334.6130   199.4420 hc         1 7C4       0.036033
    133 H70        255.9900   335.5050   199.8020 hc         1 7C4       0.036033
    134 H71        257.1710   336.1810   198.6840 hc         1 7C4       0.036033
    135 H75        260.1960   340.7770   198.5430 h1         1 7C4       0.082700
    136 H76        258.1280   341.7990   198.1210 hc         1 7C4       0.058700
    137 H77        257.5050   340.1680   198.3860 hc         1 7C4       0.058700
    138 H78        256.9490   341.3750   196.0240 hc         1 7C4       0.064700
    139 H79        257.5090   339.6990   195.9900 hc         1 7C4       0.064700
    140 H80        259.1570   340.6710   194.5730 h1         1 7C4       0.053200
    141 H81        259.1310   342.2130   195.4440 h1         1 7C4       0.053200
    142 H82        261.3780   341.7690   194.4150 h1         1 7C4       0.066700
    143 H83        260.7930   339.4120   193.7390 hc         1 7C4       0.053700
    144 H84        262.2430   339.9860   192.9000 hc         1 7C4       0.053700
    145 H85        262.3940   338.8820   194.2820 hc         1 7C4       0.053700
    146 H86        262.1230   332.7230   198.9220 h1         1 7C4       0.072700
    147 H87        261.1880   333.2490   196.6260 hc         1 7C4       0.056033
    148 H88        262.8290   333.1540   195.9770 hc         1 7C4       0.056033
    149 H89        262.0650   331.7190   196.6920 hc         1 7C4       0.056033
    150 O03        271.0310   327.5510   199.3590 os         1 7C4      -0.348100
    151 C04        265.7160   329.5330   199.5150 c3         1 7C4      -0.037100
    152 O06        265.0410   332.2490   201.0200 o          1 7C4      -0.612100
    153 C26        267.8190   332.0530   198.7170 c3         1 7C4       0.090300
    154 O09        265.4860   335.4620   200.2870 o          1 7C4      -0.648100
    155 O12        265.2530   338.6000   203.3570 o          1 7C4      -0.615100
    156 O16        264.7400   341.6350   202.6320 o          1 7C4      -0.496100
    157 C19        271.8750   327.5960   200.5080 c3         1 7C4       0.148900
    158 O21        266.5020   340.3280   198.2550 o          1 7C4      -0.520000
    159 O25        262.9200   335.8480   196.3310 o          1 7C4      -0.616100
    160 O37        263.2230   330.6530   198.9540 o          1 7C4      -0.480000
    161 C68        260.1020   339.1750   200.3520 c3         1 7C4       0.094300
    162 O27        262.2870   337.0930   199.6400 o          1 7C4      -0.634100
    163 C74        261.4280   340.5490   196.2020 c          1 7C4       0.573100
    164 O29        259.5970   338.0100   196.9840 o          1 7C4      -0.591100
    165 H21        263.6240   340.9020   195.7460 ho         1 7C4       0.467000
    166 H72        260.2390   338.5800   201.2460 h1         1 7C4       0.044367
    167 H73        261.0200   339.7320   200.1810 h1         1 7C4       0.044367
    168 H74        259.2830   339.8700   200.5330 h1         1 7C4       0.044367
@<TRIPOS>BOND
     1     1     2 ar  
     2     1     9 ar  
     3     1    65 1   
     4     2    12 ar  
     5     2    66 1   
     6     3     4 ar  
     7     3    12 ar  
     8     3    67 1   
     9     4     9 ar  
    10     4    68 1   
    11     5     7 1   
    12     5    18 1   
    13     5   152 2   
    14     6     7 1   
    15     6    64 1   
    16     6    72 1   
    17     6   151 1   
    18     7   153 1   
    19     8    18 1   
    20     8    24 1   
    21     8    25 1   
    22     9   151 1   
    23    10    26 1   
    24    10    31 1   
    25    10    75 1   
    26    11    42 1   
    27    11    47 1   
    28    11    76 1   
    29    12   150 1   
    30    13    48 1   
    31    13    49 1   
    32    13    77 1   
    33    14    50 1   
    34    14    55 1   
    35    14   161 1   
    36    15    35 1   
    37    15    39 1   
    38    16    56 1   
    39    16    59 1   
    40    16   163 1   
    41    17    41 1   
    42    17    81 1   
    43    18    20 1   
    44    18    82 1   
    45    19   163 2   
    46    20    22 1   
    47    20    83 1   
    48    20    84 1   
    49    21    60 1   
    50    21   165 1   
    51    22    24 1   
    52    22    85 1   
    53    22    86 1   
    54    23    62 1   
    55    23    64 1   
    56    24    87 1   
    57    24    88 1   
    58    25    26 1   
    59    25   154 2   
    60    26    27 1   
    61    26    89 1   
    62    27    28 1   
    63    27    90 1   
    64    27    91 1   
    65    28    29 1   
    66    28    30 1   
    67    28    92 1   
    68    29    93 1   
    69    29    94 1   
    70    29    95 1   
    71    30    96 1   
    72    30    97 1   
    73    30    98 1   
    74    31    32 1   
    75    31   155 2   
    76    32    33 1   
    77    32    34 1   
    78    32    99 1   
    79    33   100 1   
    80    33   101 1   
    81    33   102 1   
    82    34    35 1   
    83    34   156 2   
    84    35    36 1   
    85    35   103 1   
    86    36    37 1   
    87    36    38 1   
    88    36   104 1   
    89    37   105 1   
    90    37   106 1   
    91    37   107 1   
    92    38   108 1   
    93    38   109 1   
    94    38   110 1   
    95    39    40 1   
    96    39   158 2   
    97    40    41 1   
    98    40   111 1   
    99    40   112 1   
   100    41    42 1   
   101    41   113 1   
   102    42    43 1   
   103    42   114 1   
   104    43    44 1   
   105    43    45 1   
   106    43   115 1   
   107    44   116 1   
   108    44   117 1   
   109    44   118 1   
   110    45    46 1   
   111    45   119 1   
   112    45   120 1   
   113    46   121 1   
   114    46   122 1   
   115    46   123 1   
   116    47    48 1   
   117    47   159 2   
   118    48    62 1   
   119    48   124 1   
   120    49    50 1   
   121    49   162 2   
   122    50    51 1   
   123    50   125 1   
   124    51    52 1   
   125    51   126 1   
   126    51   127 1   
   127    52    53 1   
   128    52    54 1   
   129    52   128 1   
   130    53   129 1   
   131    53   130 1   
   132    53   131 1   
   133    54   132 1   
   134    54   133 1   
   135    54   134 1   
   136    55    56 1   
   137    55   164 2   
   138    56    57 1   
   139    56   135 1   
   140    57    58 1   
   141    57   136 1   
   142    57   137 1   
   143    58    59 1   
   144    58   138 1   
   145    58   139 1   
   146    59   140 1   
   147    59   141 1   
   148    60    61 1   
   149    60   142 1   
   150    60   163 1   
   151    61   143 1   
   152    61   144 1   
   153    61   145 1   
   154    62    63 1   
   155    62   146 1   
   156    63   147 1   
   157    63   148 1   
   158    63   149 1   
   159    64   160 2   
   160    69   153 1   
   161    70   153 1   
   162    71   153 1   
   163    73   151 1   
   164    74   151 1   
   165    78   157 1   
   166    79   157 1   
   167    80   157 1   
   168   150   157 1   
   169   161   166 1   
   170   161   167 1   
   171   161   168 1   
@<TRIPOS>SUBSTRUCTURE
     1 7C4         1 TEMP              0 ****  ****    0 ROOT
