@<TRIPOS>MOLECULE
7C5
   49    53     1     0     0
SMALL
No Charge or Current Charge


@<TRIPOS>ATOM
      1 N1          -4.5580     4.6300    -0.5850 nv         1 7C5      -1.054200
      2 N3           1.6150     1.0230    -1.5610 nb         1 7C5      -0.215000
      3 C4          -2.6420     1.8610    -1.6470 c          1 7C5       0.638000
      4 C5          -2.3560     0.0230     2.0870 ca         1 7C5       0.398900
      5 C6          -1.7100    -0.5940     0.9870 ca         1 7C5       0.203500
      6 C7           0.6420    -3.4500     0.2730 c3         1 7C5       0.144600
      7 C8           2.9630    -1.7000    -0.7890 c5         1 7C5       0.314300
      8 C10          2.9670    -4.1740    -0.7100 c5         1 7C5       0.110300
      9 C13          0.9610     2.2080    -1.5970 ca         1 7C5       0.184900
     10 C15          2.3550    -0.6590     1.4890 cc         1 7C5       0.409700
     11 C17         -0.9280    -1.8700     1.2260 c          1 7C5       0.517600
     12 C1          -3.8770     3.5350    -0.5530 cc         1 7C5       0.920100
     13 C2          -3.1190     1.7390     0.7490 ca         1 7C5       0.577900
     14 C3          -2.4820     1.1290    -0.3550 ca         1 7C5       0.172500
     15 C9           3.7340    -2.9290    -0.1440 c5         1 7C5       0.080300
     16 O2           3.6260    -4.6240    -1.8970 oh         1 7C5      -0.699000
     17 O3           5.1290    -3.0030    -0.5160 oh         1 7C5      -0.690000
     18 C11          1.8150     0.5030    -0.3330 ca         1 7C5       0.145500
     19 C12          1.3910     1.1380     0.8060 ca         1 7C5      -0.102600
     20 C14          0.7150     2.3670     0.6700 ca         1 7C5       0.452900
     21 N2           2.4190    -0.6500     0.0870 na         1 7C5      -0.286300
     22 N4           0.4980     2.9120    -0.5360 nb         1 7C5      -0.304000
     23 N5           0.2530     3.0690     1.7370 nv         1 7C5      -1.066900
     24 N6           1.7180     0.4270     1.9630 nd         1 7C5      -0.554100
     25 N7          -3.3600     3.0580    -1.6280 nd         1 7C5      -0.789100
     26 N8          -3.8240     2.9000     0.6130 na         1 7C5      -0.897100
     27 N9          -3.0680     1.1820     1.9720 nb         1 7C5      -0.702000
     28 N10         -1.7750    -0.0410    -0.2630 nb         1 7C5      -0.500000
     29 C16          1.5570    -3.5710    -0.9880 c5         1 7C5       0.165300
     30 O4           1.8820    -2.2790    -1.5570 os         1 7C5      -0.426000
     31 O5          -0.2250    -2.3070     0.1280 os         1 7C5      -0.381100
     32 O6          -0.9100    -2.4530     2.3050 o          1 7C5      -0.495000
     33 H1          -4.4110     5.2280     0.2150 hn         1 7C5       0.516000
     34 H2          -4.4570     5.1020    -1.4720 hn         1 7C5       0.516000
     35 H3          -2.3070    -0.4130     3.0840 h4         1 7C5       0.055100
     36 H4           0.0600    -4.3730     0.3940 h1         1 7C5       0.052200
     37 H5           1.2750    -3.3380     1.1620 h1         1 7C5       0.052200
     38 H6           3.6350    -1.1710    -1.4780 h2         1 7C5       0.126700
     39 H7           2.9200    -4.9860     0.0290 h1         1 7C5       0.054700
     40 H9           2.7560    -1.4600     2.0960 h5         1 7C5       0.063800
     41 H10          3.6460    -2.9280     0.9490 h1         1 7C5       0.050700
     42 H11          4.5170    -4.1920    -1.8080 ho         1 7C5       0.524000
     43 H12          5.6390    -2.4150     0.0940 ho         1 7C5       0.514000
     44 H13          0.6060     2.7860     2.6470 hn         1 7C5       0.506500
     45 H14          0.0730     4.0610     1.6130 hn         1 7C5       0.506500
     46 H16          1.0130    -4.1600    -1.7390 h1         1 7C5       0.113700
     47 H15         -4.3310     3.2620     1.4000 hn         1 7C5       0.517000
     48 O1          -2.1820     1.4690    -2.7110 o          1 7C5      -0.491100
     49 H8           0.7900     2.6400    -2.5820 h5         1 7C5       0.047100
@<TRIPOS>BOND
     1     1    12 1   
     2     1    33 1   
     3     1    34 1   
     4     2     9 ar  
     5     2    18 ar  
     6     3    14 1   
     7     3    25 1   
     8     3    48 2   
     9     4     5 ar  
    10     4    27 ar  
    11     4    35 1   
    12     5    11 1   
    13     5    28 ar  
    14     6    29 1   
    15     6    31 1   
    16     6    36 1   
    17     6    37 1   
    18     7    15 1   
    19     7    21 1   
    20     7    30 1   
    21     7    38 1   
    22     8    15 1   
    23     8    16 1   
    24     8    29 1   
    25     8    39 1   
    26     9    22 ar  
    27     9    49 1   
    28    10    21 1   
    29    10    24 2   
    30    10    40 1   
    31    11    31 1   
    32    11    32 2   
    33    12    25 2   
    34    12    26 1   
    35    13    14 ar  
    36    13    26 1   
    37    13    27 ar  
    38    14    28 ar  
    39    15    17 1   
    40    15    41 1   
    41    16    42 1   
    42    17    43 1   
    43    18    19 ar  
    44    18    21 1   
    45    19    20 ar  
    46    19    24 1   
    47    20    22 ar  
    48    20    23 1   
    49    23    44 1   
    50    23    45 1   
    51    26    47 1   
    52    29    30 1   
    53    29    46 1   
@<TRIPOS>SUBSTRUCTURE
     1 7C5         1 TEMP              0 ****  ****    0 ROOT
