@<TRIPOS>MOLECULE
7C5
   49    53     1     0     0
SMALL
bcc


@<TRIPOS>ATOM
      1 N1          -7.0200     3.1420    -0.8620 nv         1 7C5      -0.943800
      2 N3           4.6560     1.1210    -1.3470 nb         1 7C5      -0.741000
      3 C4          -4.1260     1.2580    -1.6100 c          1 7C5       0.638000
      4 C5          -3.8130    -0.6450     2.0610 ca         1 7C5       0.398900
      5 C6          -2.8870    -0.8990     1.0450 ca         1 7C5       0.203500
      6 C7           0.1290    -2.8690     0.3610 c3         1 7C5       0.121400
      7 C8           2.8280    -1.2360    -0.7350 c5         1 7C5       0.261800
      8 C10          2.2470    -3.5230    -0.8300 c5         1 7C5       0.087100
      9 C13          5.3470     2.2470    -1.3140 ca         1 7C5       0.710900
     10 C15          2.6520     0.1700     1.3480 cc         1 7C5       0.409700
     11 C17         -1.7880    -1.8720     1.2850 c          1 7C5       0.566600
     12 C1          -6.0020     2.3040    -0.7200 cc         1 7C5       0.920100
     13 C2          -4.8820     0.7980     0.7170 ca         1 7C5       0.577900
     14 C3          -3.9640     0.5520    -0.3110 ca         1 7C5       0.172500
     15 C9           3.2310    -2.5800    -0.1310 c5         1 7C5       0.057100
     16 O2           2.6470    -3.7800    -2.1500 oh         1 7C5      -0.576800
     17 O3           4.5770    -2.8310    -0.3890 oh         1 7C5      -0.567800
     18 C11          3.9620     0.9370    -0.2270 ca         1 7C5       0.473800
     19 C12          3.9290     1.7810     0.8710 ca         1 7C5      -0.233200
     20 C14          4.7120     2.9470     0.7840 ca         1 7C5       0.781200
     21 N2           3.1380    -0.1030     0.0970 na         1 7C5      -0.257000
     22 N4           5.4140     3.1470    -0.3370 nb         1 7C5      -0.830000
     23 N5           4.7780     3.8470     1.7650 nv         1 7C5      -0.956500
     24 N6           3.1000     1.2830     1.8440 nd         1 7C5      -0.554100
     25 N7          -5.1750     2.1110    -1.7170 nd         1 7C5      -0.789100
     26 N8          -5.8890     1.6810     0.4900 na         1 7C5      -0.841900
     27 N9          -4.8070     0.2050     1.8980 nb         1 7C5      -0.702000
     28 N10         -2.9740    -0.2960    -0.1280 nb         1 7C5      -0.500000
     29 C16          0.9910    -2.6610    -0.8660 c5         1 7C5       0.142100
     30 O4           1.4420    -1.3070    -0.9290 os         1 7C5      -0.379600
     31 O5          -0.9580    -1.9500     0.2640 os         1 7C5      -0.357900
     32 O6          -1.6850    -2.5060     2.3050 o          1 7C5      -0.544000
     33 H1          -7.6660     3.3480    -0.1190 hn         1 7C5       0.460800
     34 H2          -7.1250     3.6360    -1.7310 hn         1 7C5       0.460800
     35 H3          -3.7410    -1.1400     3.0210 h4         1 7C5       0.055100
     36 H4          -0.2460    -3.8950     0.3790 h1         1 7C5       0.052200
     37 H5           0.6930    -2.7010     1.2820 h1         1 7C5       0.052200
     38 H6           3.3570    -1.0710    -1.6800 h2         1 7C5       0.126700
     39 H7           2.0970    -4.4510    -0.2620 h1         1 7C5       0.054700
     40 H9           1.9590    -0.4900     1.8500 h5         1 7C5       0.063800
     41 H10          3.0200    -2.5800     0.9470 h1         1 7C5       0.050700
     42 H11          3.5760    -4.0380    -2.1350 ho         1 7C5       0.425000
     43 H12          4.8900    -3.5090     0.2190 ho         1 7C5       0.415000
     44 H13          4.2550     3.7290     2.6150 hn         1 7C5       0.451300
     45 H14          5.3330     4.6780     1.6560 hn         1 7C5       0.451300
     46 H16          0.4000    -2.8750    -1.7620 h1         1 7C5       0.113700
     47 H15         -6.5500     1.8610     1.2350 hn         1 7C5       0.461800
     48 O1          -3.3450     1.0660    -2.5250 o          1 7C5      -0.491100
     49 H8           5.9390     2.4700    -2.1950 h5         1 7C5       0.047100
@<TRIPOS>BOND
     1     1    12 1   
     2     1    33 1   
     3     1    34 1   
     4     2     9 ar  
     5     2    18 ar  
     6     3    14 1   
     7     3    25 1   
     8     3    48 2   
     9     4     5 ar  
    10     4    27 ar  
    11     4    35 1   
    12     5    11 1   
    13     5    28 ar  
    14     6    29 1   
    15     6    31 1   
    16     6    36 1   
    17     6    37 1   
    18     7    15 1   
    19     7    21 1   
    20     7    30 1   
    21     7    38 1   
    22     8    15 1   
    23     8    16 1   
    24     8    29 1   
    25     8    39 1   
    26     9    22 ar  
    27     9    49 1   
    28    10    21 1   
    29    10    24 2   
    30    10    40 1   
    31    11    31 1   
    32    11    32 2   
    33    12    25 2   
    34    12    26 1   
    35    13    14 ar  
    36    13    26 1   
    37    13    27 ar  
    38    14    28 ar  
    39    15    17 1   
    40    15    41 1   
    41    16    42 1   
    42    17    43 1   
    43    18    19 ar  
    44    18    21 1   
    45    19    20 ar  
    46    19    24 1   
    47    20    22 ar  
    48    20    23 1   
    49    23    44 1   
    50    23    45 1   
    51    26    47 1   
    52    29    30 1   
    53    29    46 1   
@<TRIPOS>SUBSTRUCTURE
     1 7C5         1 TEMP              0 ****  ****    0 ROOT
