@<TRIPOS>MOLECULE
7C6
   47    51     1     0     0
SMALL
No Charge or Current Charge


@<TRIPOS>ATOM
      1 C11          0.5870    -0.9180     2.1080 c3         1 7C6      -0.105100
      2 C1          -0.4960    -1.2740     1.0630 c5         1 7C6       0.249500
      3 C2          -1.7990    -0.4310     1.1300 c5         1 7C6      -0.136700
      4 C3          -1.5760     1.0970     0.8940 c          1 7C6       0.588000
      5 O1          -0.5070     1.6980     0.8730 o          1 7C6      -0.525000
      6 N2          -2.8050     1.7480     0.6310 n          1 7C6      -0.218400
      7 C12         -2.8270     3.2300     0.7170 c3         1 7C6       0.078300
      8 C4          -3.8490     1.0960    -0.1210 ca         1 7C6       0.031000
      9 C5          -5.0750     1.7300    -0.4120 ca         1 7C6      -0.213000
     10 C6          -6.0740     1.0330    -1.1050 ca         1 7C6       0.365900
     11 N3          -5.9380    -0.2530    -1.4880 nb         1 7C6      -0.676000
     12 C7          -4.7900    -0.8830    -1.1600 ca         1 7C6       0.373900
     13 C8          -3.7300    -0.2660    -0.4630 ca         1 7C6      -0.186300
     14 C9          -2.5250    -1.1080    -0.0540 c5         1 7C6      -0.019400
     15 C10         -1.4250    -1.1130    -1.1520 c5         1 7C6       0.224800
     16 N1          -0.1470    -1.1090    -0.3760 n3         1 7C6      -0.784500
     17 S1           1.2180    -1.8530    -1.0620 sy         1 7C6       1.178600
     18 O2           1.2300    -3.2490    -0.6120 o          1 7C6      -0.544500
     19 O3           1.1640    -1.5090    -2.4870 o          1 7C6      -0.544500
     20 C13          2.5840    -0.9270    -0.3520 ca         1 7C6      -0.278500
     21 C14          2.6290     0.4760    -0.5270 ca         1 7C6       0.001000
     22 C15          3.6970     1.1770     0.0460 ca         1 7C6       0.033100
     23 O4           3.9030     2.5180    -0.0260 os         1 7C6      -0.341100
     24 C19          5.1040     2.7060     0.8040 c5         1 7C6       0.375600
     25 O5           5.6260     1.3920     1.2120 os         1 7C6      -0.339100
     26 C16          4.6780     0.5370     0.7510 ca         1 7C6       0.110100
     27 C17          4.6690    -0.8500     0.9370 ca         1 7C6      -0.126000
     28 C18          3.6050    -1.5900     0.3780 ca         1 7C6      -0.005000
     29 H1           0.1510    -0.8550     3.1110 hc         1 7C6       0.059700
     30 H2           1.3620    -1.6920     2.1430 hc         1 7C6       0.059700
     31 H3           1.0810     0.0350     1.8970 hc         1 7C6       0.059700
     32 H4          -0.7460    -2.3280     1.2590 h1         1 7C6       0.049700
     33 H5          -2.4110    -0.5640     2.0280 hc         1 7C6       0.091700
     34 H6          -2.8250     3.6600    -0.2930 h1         1 7C6       0.053033
     35 H7          -3.7280     3.5570     1.2500 h1         1 7C6       0.053033
     36 H8          -1.9600     3.6130     1.2690 h1         1 7C6       0.053033
     37 H9          -5.2720     2.7600    -0.1320 ha         1 7C6       0.131000
     38 H10         -7.0160     1.5180    -1.3570 h4         1 7C6       0.022100
     39 H11         -4.7240    -1.9320    -1.4470 h4         1 7C6       0.021100
     40 H12         -2.8200    -2.1340     0.2010 hc         1 7C6       0.070700
     41 H13         -1.5280    -2.0010    -1.7920 h1         1 7C6       0.067700
     42 H14         -1.4850    -0.2280    -1.8010 h1         1 7C6       0.067700
     43 H15          1.8530     1.0040    -1.0780 ha         1 7C6       0.148000
     44 H16          5.8670     3.2460     0.2330 h2         1 7C6       0.069700
     45 H17          4.8320     3.2760     1.7010 h2         1 7C6       0.069700
     46 H18          5.4590    -1.3410     1.4980 ha         1 7C6       0.140000
     47 H19          3.5770    -2.6710     0.5140 ha         1 7C6       0.146000
@<TRIPOS>BOND
     1     1     2 1   
     2     1    29 1   
     3     1    30 1   
     4     1    31 1   
     5     2     3 1   
     6     2    16 1   
     7     2    32 1   
     8     3     4 1   
     9     3    14 1   
    10     3    33 1   
    11     4     5 2   
    12     4     6 1   
    13     6     7 1   
    14     6     8 1   
    15     7    34 1   
    16     7    35 1   
    17     7    36 1   
    18     8     9 ar  
    19     8    13 ar  
    20     9    10 ar  
    21     9    37 1   
    22    10    11 ar  
    23    10    38 1   
    24    11    12 ar  
    25    12    13 ar  
    26    12    39 1   
    27    13    14 1   
    28    14    15 1   
    29    14    40 1   
    30    15    16 1   
    31    15    41 1   
    32    15    42 1   
    33    16    17 1   
    34    17    18 2   
    35    17    19 2   
    36    17    20 1   
    37    20    21 ar  
    38    20    28 ar  
    39    21    22 ar  
    40    21    43 1   
    41    22    23 1   
    42    22    26 ar  
    43    23    24 1   
    44    24    25 1   
    45    24    44 1   
    46    24    45 1   
    47    25    26 1   
    48    26    27 ar  
    49    27    28 ar  
    50    27    46 1   
    51    28    47 1   
@<TRIPOS>SUBSTRUCTURE
     1 7C6         1 TEMP              0 ****  ****    0 ROOT
