@<TRIPOS>MOLECULE
7C6
   47    51     1     0     0
SMALL
abcg2


@<TRIPOS>ATOM
      1 C11          0.4750    -1.3330     2.2060 c3         1 7C6      -0.105100
      2 C1          -0.5970    -1.5630     1.1600 c5         1 7C6       0.249500
      3 C2          -1.9040    -0.7640     1.2370 c5         1 7C6      -0.136700
      4 C3          -1.7030     0.7350     1.3660 c          1 7C6       0.588000
      5 O1          -0.9180     1.2080     2.1600 o          1 7C6      -0.525000
      6 N2          -2.4750     1.5580     0.5750 n          1 7C6      -0.218400
      7 C12         -2.2720     2.9950     0.6790 c3         1 7C6       0.078300
      8 C4          -3.5770     1.0930    -0.1370 ca         1 7C6       0.031000
      9 C5          -4.6090     1.9350    -0.5430 ca         1 7C6      -0.213000
     10 C6          -5.6690     1.3890    -1.2500 ca         1 7C6       0.365900
     11 N3          -5.7740     0.1040    -1.5610 nb         1 7C6      -0.676000
     12 C7          -4.7850    -0.6900    -1.1650 ca         1 7C6       0.373900
     13 C8          -3.6710    -0.2590    -0.4670 ca         1 7C6      -0.186300
     14 C9          -2.5550    -1.1620    -0.0840 c5         1 7C6      -0.019400
     15 C10         -1.3890    -1.1350    -1.0900 c5         1 7C6       0.224800
     16 N1          -0.2010    -1.2660    -0.2300 n3         1 7C6      -0.784500
     17 S1           1.1770    -1.8860    -0.8780 sy         1 7C6       1.178600
     18 O2           1.4470    -3.2320    -0.3870 o          1 7C6      -0.544500
     19 O3           1.0690    -1.6840    -2.3170 o          1 7C6      -0.544500
     20 C13          2.4370    -0.8130    -0.2660 ca         1 7C6      -0.278500
     21 C14          2.2770     0.5650    -0.4810 ca         1 7C6       0.001000
     22 C15          3.2950     1.3600    -0.0320 ca         1 7C6       0.033100
     23 O4           3.3970     2.7040    -0.0850 os         1 7C6      -0.341100
     24 C19          4.6790     3.0410     0.4310 c5         1 7C6       0.375600
     25 O5           5.2490     1.8370     0.9390 os         1 7C6      -0.339100
     26 C16          4.4230     0.8350     0.5920 ca         1 7C6       0.110100
     27 C17          4.5820    -0.5130     0.7960 ca         1 7C6      -0.126000
     28 C18          3.5530    -1.3480     0.3470 ca         1 7C6      -0.005000
     29 H1           0.0230    -1.4020     3.1950 hc         1 7C6       0.059700
     30 H2           1.2330    -2.1120     2.1460 hc         1 7C6       0.059700
     31 H3           0.9630    -0.3670     2.1200 hc         1 7C6       0.059700
     32 H4          -0.8980    -2.6160     1.2380 h1         1 7C6       0.049700
     33 H5          -2.4960    -1.0920     2.0960 hc         1 7C6       0.091700
     34 H6          -2.4420     3.4540    -0.2910 h1         1 7C6       0.053033
     35 H7          -2.9430     3.4480     1.4090 h1         1 7C6       0.053033
     36 H8          -1.2490     3.1960     0.9760 h1         1 7C6       0.053033
     37 H9          -4.6190     2.9910    -0.3150 ha         1 7C6       0.131000
     38 H10         -6.4770     2.0360    -1.5730 h4         1 7C6       0.022100
     39 H11         -4.8710    -1.7420    -1.4190 h4         1 7C6       0.021100
     40 H12         -2.9210    -2.1870     0.0050 hc         1 7C6       0.070700
     41 H13         -1.4970    -1.9480    -1.8070 h1         1 7C6       0.067700
     42 H14         -1.3490    -0.1970    -1.6450 h1         1 7C6       0.067700
     43 H15          1.3960     0.9800    -0.9500 ha         1 7C6       0.148000
     44 H16          5.3100     3.4380    -0.3680 h2         1 7C6       0.069700
     45 H17          4.5760     3.7670     1.2370 h2         1 7C6       0.069700
     46 H18          5.4580    -0.9180     1.2820 ha         1 7C6       0.140000
     47 H19          3.6390    -2.4140     0.4990 ha         1 7C6       0.146000
@<TRIPOS>BOND
     1     1     2 1   
     2     1    29 1   
     3     1    30 1   
     4     1    31 1   
     5     2     3 1   
     6     2    16 1   
     7     2    32 1   
     8     3     4 1   
     9     3    14 1   
    10     3    33 1   
    11     4     5 2   
    12     4     6 1   
    13     6     7 1   
    14     6     8 1   
    15     7    34 1   
    16     7    35 1   
    17     7    36 1   
    18     8     9 ar  
    19     8    13 ar  
    20     9    10 ar  
    21     9    37 1   
    22    10    11 ar  
    23    10    38 1   
    24    11    12 ar  
    25    12    13 ar  
    26    12    39 1   
    27    13    14 1   
    28    14    15 1   
    29    14    40 1   
    30    15    16 1   
    31    15    41 1   
    32    15    42 1   
    33    16    17 1   
    34    17    18 2   
    35    17    19 2   
    36    17    20 1   
    37    20    21 ar  
    38    20    28 ar  
    39    21    22 ar  
    40    21    43 1   
    41    22    23 1   
    42    22    26 ar  
    43    23    24 1   
    44    24    25 1   
    45    24    44 1   
    46    24    45 1   
    47    25    26 1   
    48    26    27 ar  
    49    27    28 ar  
    50    27    46 1   
    51    28    47 1   
@<TRIPOS>SUBSTRUCTURE
     1 7C6         1 TEMP              0 ****  ****    0 ROOT
