@<TRIPOS>MOLECULE
7C7
   81    83     1     0     0
SMALL
bcc


@<TRIPOS>ATOM
      1 C32          2.9140    -0.7010     0.1090 c          1 7C7       0.672100
      2 O41          1.8990    -1.1940     0.5810 o          1 7C7      -0.613100
      3 C33          4.1630    -1.5080    -0.1710 c3         1 7C7      -0.152400
      4 C34          4.3150    -2.6990     0.7730 c3         1 7C7      -0.021100
      5 C35          5.5410    -3.5040     0.4440 ca         1 7C7      -0.083300
      6 C36          6.7780    -3.1740     0.9940 ca         1 7C7      -0.125000
      7 C37          7.9190    -3.8960     0.6690 ca         1 7C7      -0.128000
      8 C38          7.8390    -4.9620    -0.2180 ca         1 7C7      -0.130000
      9 C39          6.6120    -5.2990    -0.7740 ca         1 7C7      -0.128000
     10 C40          5.4740    -4.5750    -0.4450 ca         1 7C7      -0.125000
     11 C02          0.6470     0.8950    -0.8220 c          1 7C7       0.661100
     12 C22          1.8430     1.4690    -0.0580 c3         1 7C7       0.063700
     13 C23          2.1360     2.8500    -0.6330 c3         1 7C7      -0.176400
     14 C24          3.1340     3.6450     0.1960 c          1 7C7       0.666100
     15 N25          3.4030     4.8980    -0.2160 n          1 7C7      -0.479800
     16 C26          4.3260     5.7210     0.5530 c3         1 7C7       0.100000
     17 C27          5.7740     5.5320     0.1300 c3         1 7C7      -0.113100
     18 C28          2.8140     5.5120    -1.3960 c3         1 7C7       0.100000
     19 C29          1.5660     6.3240    -1.0840 c3         1 7C7      -0.113100
     20 O30          3.6480     3.1600     1.1960 o          1 7C7      -0.604100
     21 N31          2.9800     0.5990    -0.2210 ns         1 7C7      -0.554900
     22 N03         -0.5260     0.9950    -0.1800 ns         1 7C7      -0.541900
     23 C04         -1.7410     0.4460    -0.7180 c3         1 7C7       0.031700
     24 C05         -2.9340     1.1320    -0.0570 c          1 7C7       0.672100
     25 O18         -2.8210     1.7580     0.9850 o          1 7C7      -0.600100
     26 C19         -1.8260    -1.0640    -0.4960 c3         1 7C7       0.114400
     27 C21         -1.8360    -2.6610     1.2050 c3         1 7C7       0.122700
     28 C11         -8.3130    -1.7550    -0.7540 ca         1 7C7      -0.106000
     29 C10         -8.3700    -0.6010    -1.4820 ca         1 7C7      -0.132000
     30 C12         -7.3000    -1.9410     0.2170 ca         1 7C7      -0.041000
     31 C14         -5.3480    -1.1260     1.4230 ca         1 7C7      -0.112000
     32 C13         -6.3380    -0.9180     0.4330 ca         1 7C7      -0.021000
     33 C15         -5.3120    -2.2860     2.1510 ca         1 7C7      -0.124000
     34 N06         -4.0950     0.9450    -0.6980 ns         1 7C7      -0.570900
     35 C07         -5.3870     1.3670    -0.1960 c3         1 7C7       0.147300
     36 C08         -6.4090     0.2720    -0.3500 ca         1 7C7      -0.103300
     37 C09         -7.4090     0.4100    -1.2770 ca         1 7C7      -0.116000
     38 C16         -6.2600    -3.3030     1.9260 ca         1 7C7      -0.124000
     39 C17         -7.2340    -3.1300     0.9810 ca         1 7C7      -0.122000
     40 H32          4.1050    -1.8630    -1.2050 hc         1 7C7       0.062200
     41 H33          5.0480    -0.8690    -0.1200 hc         1 7C7       0.062200
     42 H34          4.3710    -2.3410     1.8030 hc         1 7C7       0.062200
     43 H35          3.4270    -3.3300     0.7060 hc         1 7C7       0.062200
     44 H36          6.8480    -2.3460     1.6910 ha         1 7C7       0.130500
     45 H37          8.8700    -3.6290     1.1120 ha         1 7C7       0.129000
     46 H38          8.7270    -5.5290    -0.4690 ha         1 7C7       0.129000
     47 H39          6.5400    -6.1310    -1.4640 ha         1 7C7       0.129000
     48 H40          4.5200    -4.8490    -0.8800 ha         1 7C7       0.130500
     49 H18          1.5940     1.5640     1.0030 h1         1 7C7       0.085700
     50 H19          2.4900     2.7420    -1.6620 hc         1 7C7       0.078700
     51 H20          1.1990     3.4100    -0.6940 hc         1 7C7       0.078700
     52 H21          4.0290     6.7630     0.4170 h1         1 7C7       0.052200
     53 H22          4.2080     5.5030     1.6140 h1         1 7C7       0.052200
     54 H23          6.4240     6.1960     0.6990 hc         1 7C7       0.042533
     55 H24          6.1030     4.5070     0.3030 hc         1 7C7       0.042533
     56 H25          5.9100     5.7600    -0.9280 hc         1 7C7       0.042533
     57 H26          3.5710     6.1560    -1.8470 h1         1 7C7       0.052200
     58 H27          2.5950     4.7530    -2.1440 h1         1 7C7       0.052200
     59 H28          0.7770     5.6990    -0.6640 hc         1 7C7       0.042533
     60 H29          1.7800     7.1200    -0.3700 hc         1 7C7       0.042533
     61 H30          1.1800     6.7860    -1.9930 hc         1 7C7       0.042533
     62 H31          3.8430     0.9790    -0.5720 hn         1 7C7       0.326500
     63 H5          -0.5370     1.2690     0.7900 hn         1 7C7       0.347500
     64 H6          -1.7680     0.6280    -1.7960 h1         1 7C7       0.085700
     65 H13         -0.9320    -1.5340    -0.9270 h1         1 7C7       0.041200
     66 H14         -2.6960    -1.4720    -1.0300 h1         1 7C7       0.041200
     67 H15         -2.6480    -3.2420     0.7520 h1         1 7C7       0.032033
     68 H16         -0.8820    -3.0990     0.8880 h1         1 7C7       0.032033
     69 H17         -1.9150    -2.7530     2.2880 h1         1 7C7       0.032033
     70 H1          -9.0420    -2.5410    -0.9110 ha         1 7C7       0.132000
     71 H2          -9.1450    -0.4590    -2.2230 ha         1 7C7       0.133000
     72 H3          -4.6110    -0.3630     1.6260 ha         1 7C7       0.151000
     73 H4          -4.5490    -2.4220     2.9050 ha         1 7C7       0.135000
     74 H7          -4.0850     0.4720    -1.5890 hn         1 7C7       0.316500
     75 H8          -5.2690     1.6570     0.8480 h1         1 7C7       0.063700
     76 H9          -5.7260     2.2560    -0.7330 h1         1 7C7       0.063700
     77 H10         -7.4610     1.3150    -1.8720 ha         1 7C7       0.128000
     78 H11         -6.2180    -4.2160     2.5050 ha         1 7C7       0.131000
     79 H12         -7.9720    -3.9040     0.8060 ha         1 7C7       0.130000
     80 O01          0.7650     0.4580    -1.9540 o          1 7C7      -0.612100
     81 O20         -1.9150    -1.2980     0.8800 os         1 7C7      -0.401600
@<TRIPOS>BOND
     1     1     2 2   
     2     1     3 1   
     3     1    21 1   
     4     3     4 1   
     5     3    40 1   
     6     3    41 1   
     7     4     5 1   
     8     4    42 1   
     9     4    43 1   
    10     5     6 ar  
    11     5    10 ar  
    12     6     7 ar  
    13     6    44 1   
    14     7     8 ar  
    15     7    45 1   
    16     8     9 ar  
    17     8    46 1   
    18     9    10 ar  
    19     9    47 1   
    20    10    48 1   
    21    11    12 1   
    22    11    22 1   
    23    11    80 2   
    24    12    13 1   
    25    12    21 1   
    26    12    49 1   
    27    13    14 1   
    28    13    50 1   
    29    13    51 1   
    30    14    15 1   
    31    14    20 2   
    32    15    16 1   
    33    15    18 1   
    34    16    17 1   
    35    16    52 1   
    36    16    53 1   
    37    17    54 1   
    38    17    55 1   
    39    17    56 1   
    40    18    19 1   
    41    18    57 1   
    42    18    58 1   
    43    19    59 1   
    44    19    60 1   
    45    19    61 1   
    46    21    62 1   
    47    22    23 1   
    48    22    63 1   
    49    23    24 1   
    50    23    26 1   
    51    23    64 1   
    52    24    25 2   
    53    24    34 1   
    54    26    65 1   
    55    26    66 1   
    56    26    81 1   
    57    27    67 1   
    58    27    68 1   
    59    27    69 1   
    60    27    81 1   
    61    28    29 ar  
    62    28    30 ar  
    63    28    70 1   
    64    29    37 ar  
    65    29    71 1   
    66    30    32 ar  
    67    30    39 ar  
    68    31    32 ar  
    69    31    33 ar  
    70    31    72 1   
    71    32    36 ar  
    72    33    38 ar  
    73    33    73 1   
    74    34    35 1   
    75    34    74 1   
    76    35    36 1   
    77    35    75 1   
    78    35    76 1   
    79    36    37 ar  
    80    37    77 1   
    81    38    39 ar  
    82    38    78 1   
    83    39    79 1   
@<TRIPOS>SUBSTRUCTURE
     1 7C7         1 TEMP              0 ****  ****    0 ROOT
