@<TRIPOS>MOLECULE
7C7
   81    83     1     0     0
SMALL
No Charge or Current Charge


@<TRIPOS>ATOM
      1 C32          3.5410    -1.4190     0.5450 c          1 7C7       0.605100
      2 O41          3.1170    -1.6550     1.6680 o          1 7C7      -0.613100
      3 C33          4.7910    -2.0970    -0.0190 c3         1 7C7      -0.152400
      4 C34          6.0750    -1.4950     0.5940 c3         1 7C7      -0.021100
      5 C35          7.3340    -2.1340     0.0240 ca         1 7C7      -0.083300
      6 C36          7.9840    -1.5600    -1.0860 ca         1 7C7      -0.107000
      7 C37          9.1430    -2.1530    -1.6140 ca         1 7C7      -0.110000
      8 C38          9.6600    -3.3250    -1.0360 ca         1 7C7      -0.112000
      9 C39          9.0150    -3.9040     0.0700 ca         1 7C7      -0.110000
     10 C40          7.8550    -3.3100     0.5980 ca         1 7C7      -0.107000
     11 C02          0.4750    -0.2130    -0.7910 c          1 7C7       0.594100
     12 C22          1.7230     0.2650     0.0120 c3         1 7C7       0.063700
     13 C23          2.0250     1.7690    -0.2350 c3         1 7C7      -0.176400
     14 C24          3.0890     2.4240     0.6700 c          1 7C7       0.599100
     15 N25          3.3950     3.8000     0.4960 n          1 7C7      -0.412800
     16 C26          4.4180     4.4550     1.3460 c3         1 7C7       0.100000
     17 C27          5.8110     4.4730     0.6930 c3         1 7C7      -0.113100
     18 C28          2.7130     4.6630    -0.5030 c3         1 7C7       0.100000
     19 C29          1.5120     5.4250     0.0860 c3         1 7C7      -0.113100
     20 O30          3.6600     1.7720     1.5340 o          1 7C7      -0.604100
     21 N31          2.9060    -0.5590    -0.3230 ns         1 7C7      -0.487900
     22 N03         -0.7280     0.3040    -0.3600 ns         1 7C7      -0.474900
     23 C04         -2.0560    -0.0270    -0.9380 c3         1 7C7       0.031700
     24 C05         -3.1140     1.0250    -0.5100 c          1 7C7       0.605100
     25 O18         -2.8630     1.9520     0.2520 o          1 7C7      -0.600100
     26 C19         -2.5090    -1.4640    -0.5750 c3         1 7C7       0.137600
     27 C21         -3.1700    -2.8090     1.3250 c3         1 7C7       0.145900
     28 C11         -9.2010    -0.6630    -1.1420 ca         1 7C7      -0.088000
     29 C10         -8.8830     0.3660    -2.0390 ca         1 7C7      -0.114000
     30 C12         -8.3350    -0.9620    -0.0740 ca         1 7C7      -0.041000
     31 C14         -6.2910    -0.5520     1.1890 ca         1 7C7      -0.094000
     32 C13         -7.1380    -0.2230     0.1030 ca         1 7C7      -0.021000
     33 C15         -6.6300    -1.5920     2.0710 ca         1 7C7      -0.106000
     34 N06         -4.3720     0.8530    -1.0460 ns         1 7C7      -0.503900
     35 C07         -5.5440     1.6490    -0.6850 c3         1 7C7       0.147300
     36 C08         -6.8200     0.8210    -0.8080 ca         1 7C7      -0.103300
     37 C09         -7.7000     1.1020    -1.8730 ca         1 7C7      -0.098000
     38 C16         -7.8160    -2.3170     1.8850 ca         1 7C7      -0.106000
     39 C17         -8.6670    -2.0020     0.8150 ca         1 7C7      -0.104000
     40 H32          4.7570    -3.1650     0.2260 hc         1 7C7       0.062200
     41 H33          4.8350    -1.9660    -1.1070 hc         1 7C7       0.062200
     42 H34          6.0860    -0.4120     0.4150 hc         1 7C7       0.062200
     43 H35          6.0490    -1.6210     1.6840 hc         1 7C7       0.062200
     44 H36          7.5900    -0.6540    -1.5410 ha         1 7C7       0.112500
     45 H37          9.6410    -1.7050    -2.4710 ha         1 7C7       0.111000
     46 H38         10.5570    -3.7850    -1.4450 ha         1 7C7       0.111000
     47 H39          9.4130    -4.8120     0.5170 ha         1 7C7       0.111000
     48 H40          7.3600    -3.7660     1.4530 ha         1 7C7       0.112500
     49 H18          1.4750     0.1330     1.0730 h1         1 7C7       0.085700
     50 H19          2.3120     1.9390    -1.2790 hc         1 7C7       0.078700
     51 H20          1.1190     2.3800    -0.1630 hc         1 7C7       0.078700
     52 H21          4.1090     5.4910     1.5420 h1         1 7C7       0.052200
     53 H22          4.4790     3.9550     2.3210 h1         1 7C7       0.052200
     54 H23          6.5340     4.9680     1.3520 hc         1 7C7       0.042533
     55 H24          6.1600     3.4510     0.5040 hc         1 7C7       0.042533
     56 H25          5.7880     5.0140    -0.2600 hc         1 7C7       0.042533
     57 H26          3.4360     5.3980    -0.8790 h1         1 7C7       0.052200
     58 H27          2.3880     4.0820    -1.3730 h1         1 7C7       0.052200
     59 H28          0.7550     4.7290     0.4650 hc         1 7C7       0.042533
     60 H29          1.8290     6.0740     0.9110 hc         1 7C7       0.042533
     61 H30          1.0470     6.0530    -0.6830 hc         1 7C7       0.042533
     62 H31          3.3010    -0.4800    -1.2520 hn         1 7C7       0.326500
     63 H5          -0.7050     0.9350     0.4340 hn         1 7C7       0.347500
     64 H6          -1.9800     0.0380    -2.0310 h1         1 7C7       0.085700
     65 H13         -1.7510    -2.1860    -0.9050 h1         1 7C7       0.041200
     66 H14         -3.4450    -1.7010    -1.0990 h1         1 7C7       0.041200
     67 H15         -4.1450    -3.0510     0.8820 h1         1 7C7       0.032033
     68 H16         -2.4630    -3.6100     1.0710 h1         1 7C7       0.032033
     69 H17         -3.2870    -2.7880     2.4160 h1         1 7C7       0.032033
     70 H1         -10.1190    -1.2300    -1.2790 ha         1 7C7       0.114000
     71 H2          -9.5530     0.5930    -2.8650 ha         1 7C7       0.115000
     72 H3          -5.3640    -0.0140     1.3640 ha         1 7C7       0.133000
     73 H4          -5.9700    -1.8350     2.9010 ha         1 7C7       0.117000
     74 H7          -4.5060     0.0740    -1.6780 hn         1 7C7       0.316500
     75 H8          -5.4440     2.0230     0.3430 h1         1 7C7       0.063700
     76 H9          -5.5910     2.5220    -1.3500 h1         1 7C7       0.063700
     77 H10         -7.4660     1.8950    -2.5810 ha         1 7C7       0.110000
     78 H11         -8.0760    -3.1210     2.5700 ha         1 7C7       0.113000
     79 H12         -9.5860    -2.5680     0.6770 ha         1 7C7       0.112000
     80 O01          0.5370    -0.9850    -1.7410 o          1 7C7      -0.612100
     81 O20         -2.6940    -1.5390     0.8500 os         1 7C7      -0.448000
@<TRIPOS>BOND
     1     1     2 2   
     2     1     3 1   
     3     1    21 1   
     4     3     4 1   
     5     3    40 1   
     6     3    41 1   
     7     4     5 1   
     8     4    42 1   
     9     4    43 1   
    10     5     6 ar  
    11     5    10 ar  
    12     6     7 ar  
    13     6    44 1   
    14     7     8 ar  
    15     7    45 1   
    16     8     9 ar  
    17     8    46 1   
    18     9    10 ar  
    19     9    47 1   
    20    10    48 1   
    21    11    12 1   
    22    11    22 1   
    23    11    80 2   
    24    12    13 1   
    25    12    21 1   
    26    12    49 1   
    27    13    14 1   
    28    13    50 1   
    29    13    51 1   
    30    14    15 1   
    31    14    20 2   
    32    15    16 1   
    33    15    18 1   
    34    16    17 1   
    35    16    52 1   
    36    16    53 1   
    37    17    54 1   
    38    17    55 1   
    39    17    56 1   
    40    18    19 1   
    41    18    57 1   
    42    18    58 1   
    43    19    59 1   
    44    19    60 1   
    45    19    61 1   
    46    21    62 1   
    47    22    23 1   
    48    22    63 1   
    49    23    24 1   
    50    23    26 1   
    51    23    64 1   
    52    24    25 2   
    53    24    34 1   
    54    26    65 1   
    55    26    66 1   
    56    26    81 1   
    57    27    67 1   
    58    27    68 1   
    59    27    69 1   
    60    27    81 1   
    61    28    29 ar  
    62    28    30 ar  
    63    28    70 1   
    64    29    37 ar  
    65    29    71 1   
    66    30    32 ar  
    67    30    39 ar  
    68    31    32 ar  
    69    31    33 ar  
    70    31    72 1   
    71    32    36 ar  
    72    33    38 ar  
    73    33    73 1   
    74    34    35 1   
    75    34    74 1   
    76    35    36 1   
    77    35    75 1   
    78    35    76 1   
    79    36    37 ar  
    80    37    77 1   
    81    38    39 ar  
    82    38    78 1   
    83    39    79 1   
@<TRIPOS>SUBSTRUCTURE
     1 7C7         1 TEMP              0 ****  ****    0 ROOT
