@<TRIPOS>MOLECULE
7C8
   98   103     1     0     0
SMALL
No Charge or Current Charge


@<TRIPOS>ATOM
      1 C1          -1.9120    -1.0680    -1.6650 c3         1 7C8      -0.087100
      2 C2          -1.8770    -0.6660    -0.1670 c3         1 7C8      -0.044700
      3 C3          -0.9930    -1.6630     0.6520 c3         1 7C8      -0.077400
      4 C4           0.5110    -1.7030     0.2750 c3         1 7C8      -0.077400
      5 C5           1.3430    -2.5680     1.2490 c3         1 7C8       0.167800
      6 N1           2.7580    -2.7740     0.8480 n3         1 7C8      -0.718600
      7 C6           3.4360    -3.7730     1.7140 c6         1 7C8       0.145300
      8 C7           4.8720    -4.1090     1.2290 c6         1 7C8       0.108500
      9 N2           5.7290    -2.9310     0.9030 n          1 7C8      -0.405800
     10 C8           7.1130    -3.1060     0.7360 c          1 7C8       0.647100
     11 O2           7.7030    -4.1370     1.0270 o          1 7C8      -0.548000
     12 O3           7.7180    -1.9930     0.2220 os         1 7C8      -0.458100
     13 C9           9.1360    -2.0410     0.0060 c3         1 7C8       0.229900
     14 C10          9.5710    -0.7000    -0.5680 ca         1 7C8      -0.081300
     15 C11          9.9780     0.3440     0.2880 ca         1 7C8      -0.080500
     16 C12         10.3720     1.5830    -0.2450 ca         1 7C8       0.119500
     17 Cl1         10.8780     2.8790     0.8320 cl         1 7C8      -0.189000
     18 C13         10.3610     1.7920    -1.6330 ca         1 7C8      -0.088000
     19 C14          9.9530     0.7570    -2.4890 ca         1 7C8       0.119500
     20 Cl2          9.9330     1.0160    -4.2290 cl         1 7C8      -0.189000
     21 C15          9.5580    -0.4840    -1.9610 ca         1 7C8      -0.080500
     22 C16         -3.3370    -0.5510     0.4750 c5         1 7C8      -0.055700
     23 C17         -3.3100    -0.0370     1.9590 c5         1 7C8      -0.080400
     24 C18         -4.6840     0.6500     2.2080 c5         1 7C8      -0.062400
     25 C19         -5.5050     0.3240     0.9320 c5         1 7C8      -0.055700
     26 C20         -6.8020     1.1660     0.6690 c6         1 7C8      -0.037700
     27 C21         -7.8780     1.0480     1.8030 c6         1 7C8       0.174300
     28 O4          -7.4200     1.6460     3.0210 oh         1 7C8      -0.662000
     29 C22         -9.2090     1.7490     1.4130 c6         1 7C8      -0.107400
     30 C23         -9.8120     1.2470     0.0690 c6         1 7C8      -0.046700
     31 C24        -10.3340    -0.2210     0.2130 c6         1 7C8      -0.072400
     32 C25        -10.9620    -0.7470    -1.0980 c6         1 7C8       0.172300
     33 O5         -11.3610    -2.1100    -0.9390 oh         1 7C8      -0.661000
     34 C26         -9.9620    -0.6240    -2.2690 c6         1 7C8      -0.112400
     35 C27         -9.4820     0.8410    -2.4200 c6         1 7C8      -0.066400
     36 C28         -8.8030     1.4240    -1.1290 c6         1 7C8      -0.032000
     37 C29         -8.5550     2.9480    -1.4010 c3         1 7C8      -0.086100
     38 C30         -7.4260     0.6930    -0.7460 c6         1 7C8      -0.047700
     39 C31         -6.3700     0.7150    -1.9290 c6         1 7C8      -0.071400
     40 C32         -5.0840    -0.0690    -1.5590 c6         1 7C8      -0.064400
     41 C33         -4.4190     0.4170    -0.2040 c5         1 7C8      -0.038000
     42 C34         -3.8410     1.8550    -0.4410 c3         1 7C8      -0.077100
     43 C35          3.5660    -1.5230     0.8380 c6         1 7C8       0.145300
     44 C36          5.0170    -1.7460     0.3260 c6         1 7C8       0.108500
     45 H1          -0.9190    -1.3200    -2.0490 hc         1 7C8       0.032700
     46 H2          -2.5690    -1.9300    -1.8270 hc         1 7C8       0.032700
     47 H3          -2.2600    -0.2320    -2.2790 hc         1 7C8       0.032700
     48 H4          -1.3320     0.3030    -0.1380 hc         1 7C8       0.045700
     49 H5          -1.0450    -1.4010     1.7140 hc         1 7C8       0.037700
     50 H6          -1.4120    -2.6730     0.5640 hc         1 7C8       0.037700
     51 H7           0.6380    -2.1120    -0.7330 hc         1 7C8       0.046700
     52 H8           0.8990    -0.6780     0.2660 hc         1 7C8       0.046700
     53 H9           1.2990    -2.1150     2.2490 h1         1 7C8       0.030700
     54 H10          0.8490    -3.5470     1.3210 h1         1 7C8       0.030700
     55 H12          3.4960    -3.3960     2.7460 h1         1 7C8       0.041950
     56 H13          2.8570    -4.7070     1.7500 h1         1 7C8       0.041950
     57 H14          5.3630    -4.7200     2.0000 h1         1 7C8       0.064450
     58 H15          4.7940    -4.7330     0.3280 h1         1 7C8       0.064450
     59 H16          9.6690    -2.2290     0.9470 h1         1 7C8       0.061200
     60 H17          9.3980    -2.8440    -0.6970 h1         1 7C8       0.061200
     61 H18          9.9870     0.1960     1.3650 ha         1 7C8       0.137000
     62 H19         10.6650     2.7510    -2.0430 ha         1 7C8       0.146000
     63 H20          9.2400    -1.2760    -2.6350 ha         1 7C8       0.137000
     64 H21         -3.7320    -1.5740     0.4650 hc         1 7C8       0.042700
     65 H22         -3.1510    -0.8650     2.6600 hc         1 7C8       0.038200
     66 H23         -2.4930     0.6740     2.1290 hc         1 7C8       0.038200
     67 H24         -5.1610     0.2580     3.1130 hc         1 7C8       0.049700
     68 H25         -4.5720     1.7300     2.3510 hc         1 7C8       0.049700
     69 H26         -5.8710    -0.7080     1.0090 hc         1 7C8       0.037700
     70 H27         -6.5140     2.2210     0.5930 hc         1 7C8       0.063700
     71 H28         -8.0790    -0.0180     1.9760 h1         1 7C8       0.030700
     72 H29         -8.1280     1.5050     3.6850 ho         1 7C8       0.439000
     73 H30         -9.9460     1.6000     2.2140 hc         1 7C8       0.045700
     74 H31         -9.0520     2.8350     1.3660 hc         1 7C8       0.045700
     75 H32        -10.6930     1.8710    -0.1390 hc         1 7C8       0.046700
     76 H33         -9.5320    -0.9000     0.5260 hc         1 7C8       0.053200
     77 H34        -11.0890    -0.2630     1.0100 hc         1 7C8       0.053200
     78 H35        -11.8430    -0.1290    -1.3290 h1         1 7C8       0.025700
     79 H36        -11.7790    -2.3800    -1.7850 ho         1 7C8       0.441000
     80 H37         -9.1060    -1.2950    -2.1180 hc         1 7C8       0.046200
     81 H38        -10.4430    -0.9440    -3.2030 hc         1 7C8       0.046200
     82 H39         -8.8220     0.9280    -3.2920 hc         1 7C8       0.041200
     83 H40        -10.3570     1.4570    -2.6730 hc         1 7C8       0.041200
     84 H41         -9.5020     3.4870    -1.5300 hc         1 7C8       0.034700
     85 H42         -8.0130     3.4450    -0.5900 hc         1 7C8       0.034700
     86 H43         -7.9760     3.1070    -2.3180 hc         1 7C8       0.034700
     87 H44         -7.6580    -0.3700    -0.6110 hc         1 7C8       0.047700
     88 H45         -6.7890     0.2550    -2.8320 hc         1 7C8       0.039700
     89 H46         -6.1120     1.7460    -2.2010 hc         1 7C8       0.039700
     90 H47         -5.3300    -1.1370    -1.4770 hc         1 7C8       0.040200
     91 H48         -4.3870     0.0160    -2.3980 hc         1 7C8       0.040200
     92 H49         -4.6210     2.5850    -0.6810 hc         1 7C8       0.032367
     93 H50         -3.2990     2.2460     0.4270 hc         1 7C8       0.032367
     94 H51         -3.1320     1.8570    -1.2770 hc         1 7C8       0.032367
     95 H52          3.1040    -0.7580     0.1990 h1         1 7C8       0.041950
     96 H53          3.6160    -1.1020     1.8530 h1         1 7C8       0.041950
     97 H54          5.5890    -0.8300     0.5300 h1         1 7C8       0.064450
     98 H55          4.9830    -1.8680    -0.7650 h1         1 7C8       0.064450
@<TRIPOS>BOND
     1     1     2 1   
     2     1    45 1   
     3     1    46 1   
     4     1    47 1   
     5     2     3 1   
     6     2    22 1   
     7     2    48 1   
     8     3     4 1   
     9     3    49 1   
    10     3    50 1   
    11     4     5 1   
    12     4    51 1   
    13     4    52 1   
    14     5     6 1   
    15     5    53 1   
    16     5    54 1   
    17     6     7 1   
    18     6    43 1   
    19     7     8 1   
    20     7    55 1   
    21     7    56 1   
    22     8     9 1   
    23     8    57 1   
    24     8    58 1   
    25     9    10 1   
    26     9    44 1   
    27    10    11 2   
    28    10    12 1   
    29    12    13 1   
    30    13    14 1   
    31    13    59 1   
    32    13    60 1   
    33    14    15 ar  
    34    14    21 ar  
    35    15    16 ar  
    36    15    61 1   
    37    16    17 1   
    38    16    18 ar  
    39    18    19 ar  
    40    18    62 1   
    41    19    20 1   
    42    19    21 ar  
    43    21    63 1   
    44    22    23 1   
    45    22    41 1   
    46    22    64 1   
    47    23    24 1   
    48    23    65 1   
    49    23    66 1   
    50    24    25 1   
    51    24    67 1   
    52    24    68 1   
    53    25    26 1   
    54    25    41 1   
    55    25    69 1   
    56    26    27 1   
    57    26    38 1   
    58    26    70 1   
    59    27    28 1   
    60    27    29 1   
    61    27    71 1   
    62    28    72 1   
    63    29    30 1   
    64    29    73 1   
    65    29    74 1   
    66    30    31 1   
    67    30    36 1   
    68    30    75 1   
    69    31    32 1   
    70    31    76 1   
    71    31    77 1   
    72    32    33 1   
    73    32    34 1   
    74    32    78 1   
    75    33    79 1   
    76    34    35 1   
    77    34    80 1   
    78    34    81 1   
    79    35    36 1   
    80    35    82 1   
    81    35    83 1   
    82    36    37 1   
    83    36    38 1   
    84    37    84 1   
    85    37    85 1   
    86    37    86 1   
    87    38    39 1   
    88    38    87 1   
    89    39    40 1   
    90    39    88 1   
    91    39    89 1   
    92    40    41 1   
    93    40    90 1   
    94    40    91 1   
    95    41    42 1   
    96    42    92 1   
    97    42    93 1   
    98    42    94 1   
    99    43    44 1   
   100    43    95 1   
   101    43    96 1   
   102    44    97 1   
   103    44    98 1   
@<TRIPOS>SUBSTRUCTURE
     1 7C8         1 TEMP              0 ****  ****    0 ROOT
