@<TRIPOS>MOLECULE
7C8
   98   103     1     0     0
SMALL
abcg2


@<TRIPOS>ATOM
      1 C1          -2.0640    -1.3410    -1.9720 c3         1 7C8      -0.087100
      2 C2          -1.8790    -0.7430    -0.5800 c3         1 7C8      -0.044700
      3 C3          -0.9440    -1.6190     0.2660 c3         1 7C8      -0.077400
      4 C4           0.4490    -1.8410    -0.3160 c3         1 7C8      -0.077400
      5 C5           1.3390    -2.5910     0.6680 c3         1 7C8       0.167800
      6 N1           2.6530    -2.9110     0.1400 n3         1 7C8      -0.718600
      7 C6           3.3210    -3.9120     0.9500 c6         1 7C8       0.145300
      8 C7           4.6440    -4.3180     0.3250 c6         1 7C8       0.108500
      9 N2           5.4810    -3.1520     0.1240 n          1 7C8      -0.405800
     10 C8           6.7410    -3.1170     0.5930 c          1 7C8       0.647100
     11 O2           7.2800    -4.0120     1.2160 o          1 7C8      -0.548000
     12 O3           7.3610    -1.9670     0.2960 os         1 7C8      -0.458100
     13 C9           8.7050    -1.8220     0.7540 c3         1 7C8       0.229900
     14 C10          9.1420    -0.4470     0.3440 ca         1 7C8      -0.081300
     15 C11          8.8030     0.6490     1.1290 ca         1 7C8      -0.080500
     16 C12          9.1870     1.9170     0.7270 ca         1 7C8       0.119500
     17 CL1          8.7730     3.2810     1.7050 cl         1 7C8      -0.189000
     18 C13          9.9020     2.1240    -0.4440 ca         1 7C8      -0.088000
     19 C14         10.2280     1.0170    -1.2090 ca         1 7C8       0.119500
     20 CL2         11.1240     1.2450    -2.6710 cl         1 7C8      -0.189000
     21 C15          9.8560    -0.2630    -0.8330 ca         1 7C8      -0.080500
     22 C16         -3.2000    -0.5400     0.1770 c5         1 7C8      -0.055700
     23 C17         -2.9940     0.1450     1.5510 c5         1 7C8      -0.080400
     24 C18         -4.2680     0.9590     1.8460 c5         1 7C8      -0.062400
     25 C19         -5.2450     0.5230     0.7550 c5         1 7C8      -0.055700
     26 C20         -6.5010     1.3490     0.4560 c6         1 7C8      -0.037700
     27 C21         -7.3550     1.5940     1.7000 c6         1 7C8       0.174300
     28 O4          -6.6420     2.4340     2.5900 oh         1 7C8      -0.662000
     29 C22         -8.6960     2.2350     1.3580 c6         1 7C8      -0.107400
     30 C23         -9.4900     1.4530     0.3200 c6         1 7C8      -0.046700
     31 C24        -10.0140     0.1360     0.9050 c6         1 7C8      -0.072400
     32 C25        -10.8140    -0.6640    -0.1050 c6         1 7C8       0.172300
     33 O5         -11.2420    -1.8590     0.5210 oh         1 7C8      -0.661000
     34 C26         -9.9800    -0.9210    -1.3510 c6         1 7C8      -0.112400
     35 C27         -9.5030     0.4010    -1.9380 c6         1 7C8      -0.066400
     36 C28         -8.6670     1.2600    -0.9730 c6         1 7C8      -0.032000
     37 C29         -8.4580     2.6150    -1.6590 c3         1 7C8      -0.086100
     38 C30         -7.3160     0.5880    -0.6210 c6         1 7C8      -0.047700
     39 C31         -6.4540     0.2970    -1.8510 c6         1 7C8      -0.071400
     40 C32         -5.1680    -0.4540    -1.5170 c6         1 7C8      -0.064400
     41 C33         -4.3370     0.2860    -0.4720 c5         1 7C8      -0.038000
     42 C34         -3.7870     1.5990    -1.0380 c3         1 7C8      -0.077100
     43 C35          3.4980    -1.7400     0.0050 c6         1 7C8       0.145300
     44 C36          4.8290    -2.0980    -0.6340 c6         1 7C8       0.108500
     45 H1          -1.1050    -1.5660    -2.4400 hc         1 7C8       0.032700
     46 H2          -2.6370    -2.2710    -1.9320 hc         1 7C8       0.032700
     47 H3          -2.5830    -0.6600    -2.6450 hc         1 7C8       0.032700
     48 H4          -1.3940     0.2370    -0.6940 hc         1 7C8       0.045700
     49 H5          -0.8230    -1.1640     1.2530 hc         1 7C8       0.037700
     50 H6          -1.4260    -2.5880     0.4390 hc         1 7C8       0.037700
     51 H7           0.4030    -2.4190    -1.2420 hc         1 7C8       0.046700
     52 H8           0.8870    -0.8710    -0.5730 hc         1 7C8       0.046700
     53 H9           1.4110    -2.0200     1.6110 h1         1 7C8       0.030700
     54 H10          0.8470    -3.5340     0.9220 h1         1 7C8       0.030700
     55 H12          3.5050    -3.5540     1.9780 h1         1 7C8       0.041950
     56 H13          2.6850    -4.7960     1.0240 h1         1 7C8       0.041950
     57 H14          5.1530    -5.0350     0.9630 h1         1 7C8       0.064450
     58 H15          4.4590    -4.7980    -0.6420 h1         1 7C8       0.064450
     59 H16          8.7550    -1.9300     1.8390 h1         1 7C8       0.061200
     60 H17          9.3490    -2.5800     0.3050 h1         1 7C8       0.061200
     61 H18          8.2510     0.5130     2.0500 ha         1 7C8       0.137000
     62 H19         10.1980     3.1190    -0.7470 ha         1 7C8       0.146000
     63 H20         10.1230    -1.1130    -1.4490 ha         1 7C8       0.137000
     64 H21         -3.6160    -1.5430     0.3570 hc         1 7C8       0.042700
     65 H22         -2.8090    -0.5960     2.3300 hc         1 7C8       0.038200
     66 H23         -2.1100     0.7890     1.5290 hc         1 7C8       0.038200
     67 H24         -4.6530     0.7670     2.8460 hc         1 7C8       0.049700
     68 H25         -4.0710     2.0310     1.7910 hc         1 7C8       0.049700
     69 H26         -5.6120    -0.4760     1.0440 hc         1 7C8       0.037700
     70 H27         -6.2050     2.3300     0.0630 hc         1 7C8       0.063700
     71 H28         -7.5380     0.6170     2.1760 h1         1 7C8       0.030700
     72 H29         -7.1820     2.5510     3.3780 ho         1 7C8       0.439000
     73 H30         -9.2910     2.3320     2.2740 hc         1 7C8       0.045700
     74 H31         -8.5120     3.2530     1.0020 hc         1 7C8       0.045700
     75 H32        -10.3700     2.0530     0.0520 hc         1 7C8       0.046700
     76 H33         -9.1920    -0.4860     1.2730 hc         1 7C8       0.053200
     77 H34        -10.6380     0.3650     1.7750 hc         1 7C8       0.053200
     78 H35        -11.6870    -0.0630    -0.4070 h1         1 7C8       0.025700
     79 H36        -11.7640    -2.3590    -0.1140 ho         1 7C8       0.441000
     80 H37         -9.1330    -1.5690    -1.0990 hc         1 7C8       0.046200
     81 H38        -10.5740    -1.4600    -2.0950 hc         1 7C8       0.046200
     82 H39         -8.9590     0.2250    -2.8680 hc         1 7C8       0.041200
     83 H40        -10.3850     0.9860    -2.2270 hc         1 7C8       0.041200
     84 H41         -9.4190     3.1150    -1.8020 hc         1 7C8       0.034700
     85 H42         -7.8190     3.2960    -1.0980 hc         1 7C8       0.034700
     86 H43         -8.0110     2.4940    -2.6480 hc         1 7C8       0.034700
     87 H44         -7.5470    -0.3920    -0.1800 hc         1 7C8       0.047700
     88 H45         -7.0210    -0.3020    -2.5670 hc         1 7C8       0.039700
     89 H46         -6.2070     1.2300    -2.3670 hc         1 7C8       0.039700
     90 H47         -5.4220    -1.4440    -1.1210 hc         1 7C8       0.040200
     91 H48         -4.6100    -0.6260    -2.4390 hc         1 7C8       0.040200
     92 H49         -4.5770     2.2580    -1.3990 hc         1 7C8       0.032367
     93 H50         -3.2160     2.1610    -0.2970 hc         1 7C8       0.032367
     94 H51         -3.1190     1.4140    -1.8810 hc         1 7C8       0.032367
     95 H52          3.0070    -1.0000    -0.6280 h1         1 7C8       0.041950
     96 H53          3.6850    -1.2620     0.9830 h1         1 7C8       0.041950
     97 H54          5.4560    -1.2130    -0.6860 h1         1 7C8       0.064450
     98 H55          4.6590    -2.4490    -1.6570 h1         1 7C8       0.064450
@<TRIPOS>BOND
     1     1     2 1   
     2     1    45 1   
     3     1    46 1   
     4     1    47 1   
     5     2     3 1   
     6     2    22 1   
     7     2    48 1   
     8     3     4 1   
     9     3    49 1   
    10     3    50 1   
    11     4     5 1   
    12     4    51 1   
    13     4    52 1   
    14     5     6 1   
    15     5    53 1   
    16     5    54 1   
    17     6     7 1   
    18     6    43 1   
    19     7     8 1   
    20     7    55 1   
    21     7    56 1   
    22     8     9 1   
    23     8    57 1   
    24     8    58 1   
    25     9    10 1   
    26     9    44 1   
    27    10    11 2   
    28    10    12 1   
    29    12    13 1   
    30    13    14 1   
    31    13    59 1   
    32    13    60 1   
    33    14    15 ar  
    34    14    21 ar  
    35    15    16 ar  
    36    15    61 1   
    37    16    17 1   
    38    16    18 ar  
    39    18    19 ar  
    40    18    62 1   
    41    19    20 1   
    42    19    21 ar  
    43    21    63 1   
    44    22    23 1   
    45    22    41 1   
    46    22    64 1   
    47    23    24 1   
    48    23    65 1   
    49    23    66 1   
    50    24    25 1   
    51    24    67 1   
    52    24    68 1   
    53    25    26 1   
    54    25    41 1   
    55    25    69 1   
    56    26    27 1   
    57    26    38 1   
    58    26    70 1   
    59    27    28 1   
    60    27    29 1   
    61    27    71 1   
    62    28    72 1   
    63    29    30 1   
    64    29    73 1   
    65    29    74 1   
    66    30    31 1   
    67    30    36 1   
    68    30    75 1   
    69    31    32 1   
    70    31    76 1   
    71    31    77 1   
    72    32    33 1   
    73    32    34 1   
    74    32    78 1   
    75    33    79 1   
    76    34    35 1   
    77    34    80 1   
    78    34    81 1   
    79    35    36 1   
    80    35    82 1   
    81    35    83 1   
    82    36    37 1   
    83    36    38 1   
    84    37    84 1   
    85    37    85 1   
    86    37    86 1   
    87    38    39 1   
    88    38    87 1   
    89    39    40 1   
    90    39    88 1   
    91    39    89 1   
    92    40    41 1   
    93    40    90 1   
    94    40    91 1   
    95    41    42 1   
    96    42    92 1   
    97    42    93 1   
    98    42    94 1   
    99    43    44 1   
   100    43    95 1   
   101    43    96 1   
   102    44    97 1   
   103    44    98 1   
@<TRIPOS>SUBSTRUCTURE
     1 7C8         1 TEMP              0 ****  ****    0 ROOT
