@<TRIPOS>MOLECULE
7C9
   16    15     1     0     0
SMALL
No Charge or Current Charge


@<TRIPOS>ATOM
      1 O20          2.1160     0.0880    -0.2420 os         1 7C9      -0.474000
      2 N03         -0.1540     1.7900    -0.5260 n8         1 7C9      -0.990200
      3 C04         -0.3020     0.2820    -0.4630 c3         1 7C9       0.021500
      4 C05         -1.6720    -0.2790     0.0870 c          1 7C9       0.721000
      5 O18         -2.0330     0.0530     1.2100 o          1 7C9      -0.728500
      6 C19          0.8690    -0.3670     0.3240 c3         1 7C9       0.123600
      7 C21          3.2870    -0.4480     0.3950 c3         1 7C9       0.156900
      8 H5          -0.3160     2.1710     0.4140 hn         1 7C9       0.382000
      9 H6          -0.2190    -0.0830    -1.4960 h1         1 7C9       0.053700
     10 H13          0.7880    -1.4600     0.2550 h1         1 7C9       0.026200
     11 H14          0.8010    -0.0860     1.3840 h1         1 7C9       0.026200
     12 H15          3.3150    -0.1680     1.4560 h1         1 7C9       0.009700
     13 H16          3.3020    -1.5430     0.3230 h1         1 7C9       0.009700
     14 H17          4.1930    -0.0600    -0.0860 h1         1 7C9       0.009700
     15 H2           0.8410     1.9890    -0.6950 hn         1 7C9       0.382000
     16 OXT         -2.3600    -0.9660    -0.6580 o          1 7C9      -0.728500
@<TRIPOS>BOND
     1     1     6 1   
     2     1     7 1   
     3     2     3 1   
     4     2     8 1   
     5     2    15 1   
     6     3     4 1   
     7     3     6 1   
     8     3     9 1   
     9     4     5 1   
    10     4    16 1   
    11     6    10 1   
    12     6    11 1   
    13     7    12 1   
    14     7    13 1   
    15     7    14 1   
@<TRIPOS>SUBSTRUCTURE
     1 7C9         1 TEMP              0 ****  ****    0 ROOT
