@<TRIPOS>MOLECULE
7C9
   16    15     1     0     0
SMALL
bcc


@<TRIPOS>ATOM
      1 O20          2.1200     0.0520    -0.3000 os         1 7C9      -0.427600
      2 N03         -0.1760     1.7900    -0.3930 n8         1 7C9      -0.879800
      3 C04         -0.2510     0.3430    -0.4780 c3         1 7C9       0.021500
      4 C05         -1.5830    -0.1950     0.0960 c          1 7C9       0.931600
      5 O18         -2.2600     0.5790     0.7980 o          1 7C9      -0.833800
      6 C19          0.8900    -0.3820     0.2330 c3         1 7C9       0.100400
      7 C21          3.2240    -0.5070     0.3620 c3         1 7C9       0.133700
      8 H5          -0.4760     2.0750     0.5310 hn         1 7C9       0.326800
      9 H6          -0.2070     0.0550    -1.5360 h1         1 7C9       0.053700
     10 H13          0.7800    -1.4670     0.1110 h1         1 7C9       0.026200
     11 H14          0.8480    -0.1710     1.3140 h1         1 7C9       0.026200
     12 H15          3.2290    -0.2640     1.4320 h1         1 7C9       0.009700
     13 H16          3.2490    -1.6000     0.2700 h1         1 7C9       0.009700
     14 H17          4.1310    -0.1040    -0.0870 h1         1 7C9       0.009700
     15 H2           0.7840     2.0930    -0.4990 hn         1 7C9       0.326800
     16 OXT         -1.8470    -1.3840    -0.1720 o          1 7C9      -0.833800
@<TRIPOS>BOND
     1     1     6 1   
     2     1     7 1   
     3     2     3 1   
     4     2     8 1   
     5     2    15 1   
     6     3     4 1   
     7     3     6 1   
     8     3     9 1   
     9     4     5 1   
    10     4    16 1   
    11     6    10 1   
    12     6    11 1   
    13     7    12 1   
    14     7    13 1   
    15     7    14 1   
@<TRIPOS>SUBSTRUCTURE
     1 7C9         1 TEMP              0 ****  ****    0 ROOT
