@<TRIPOS>MOLECULE
7CA
   69    72     1     0     0
SMALL
No Charge or Current Charge


@<TRIPOS>ATOM
      1 C1           2.7840     5.7340    -1.6190 c3         1 7CA       0.146900
      2 O1           2.7920     4.4590    -2.2850 os         1 7CA      -0.335100
      3 C2           2.0110     3.4030    -1.8620 ca         1 7CA       0.168100
      4 C3           2.0910     2.2000    -2.5790 ca         1 7CA      -0.186500
      5 C4           1.3210     1.0890    -2.1960 ca         1 7CA      -0.026500
      6 C5           1.1460     3.4920    -0.7510 ca         1 7CA      -0.186500
      7 C6           0.3760     2.3800    -0.3660 ca         1 7CA      -0.026500
      8 C7           0.4640     1.1670    -1.0790 ca         1 7CA      -0.116800
      9 C8          -0.3460     0.0140    -0.6690 cc         1 7CA       0.214900
     10 O2          -1.6270     0.2810    -0.2290 os         1 7CA      -0.207200
     11 C9           0.2430    -1.2090    -0.3900 cd         1 7CA      -0.098100
     12 C10         -0.5930    -2.3610     0.0320 c          1 7CA       0.599900
     13 C11         -2.0530    -2.1130    -0.0160 ca         1 7CA      -0.377600
     14 C12         -2.4970    -0.7950    -0.2030 ca         1 7CA       0.245100
     15 O3          -0.1660    -3.4730     0.3300 o          1 7CA      -0.600100
     16 C13         -2.9900    -3.1510     0.1050 ca         1 7CA       0.279100
     17 C14         -4.3540    -2.8800     0.0460 ca         1 7CA      -0.246000
     18 C15         -4.8030    -1.5720    -0.1270 ca         1 7CA       0.250100
     19 C16         -3.8830    -0.5110    -0.2530 ca         1 7CA      -0.259300
     20 O4          -2.5860    -4.4320     0.2880 oh         1 7CA      -0.535100
     21 O10         -6.1450    -1.3500    -0.1520 oh         1 7CA      -0.522100
     22 C17         -4.3570     0.9400    -0.4330 c3         1 7CA      -0.011100
     23 C18         -4.4940     1.6740     0.9230 c3         1 7CA      -0.075400
     24 C19         -4.7910     3.1940     0.8170 c3         1 7CA      -0.061700
     25 C20         -6.1390     3.4990     0.1190 c3         1 7CA      -0.088600
     26 C21         -4.7310     3.8660     2.2080 c3         1 7CA      -0.088600
     27 O5           1.6270    -1.2590    -0.4900 os         1 7CA      -0.357100
     28 C22          2.4530    -2.2420     0.1700 c6         1 7CA       0.351300
     29 O6           2.3170    -2.0900     1.6060 os         1 7CA      -0.454000
     30 C23          3.9530    -2.0550    -0.2520 c6         1 7CA       0.113300
     31 O7           4.8260    -3.0880     0.2840 oh         1 7CA      -0.695000
     32 C24          4.4440    -0.6610     0.2440 c6         1 7CA       0.187300
     33 O8           5.8400    -0.5060    -0.0650 oh         1 7CA      -0.629000
     34 C25          4.2110    -0.5090     1.7810 c6         1 7CA       0.150300
     35 O9           4.6190     0.8040     2.2210 oh         1 7CA      -0.705000
     36 C26          2.7130    -0.7930     2.1170 c6         1 7CA       0.132300
     37 C27          2.4250    -0.8140     3.6390 c3         1 7CA      -0.089100
     38 H11          3.4750     6.4270    -2.1160 h1         1 7CA       0.044367
     39 H12          1.7820     6.1800    -1.6400 h1         1 7CA       0.044367
     40 H13          3.1020     5.6300    -0.5730 h1         1 7CA       0.044367
     41 H3           2.7520     2.1300    -3.4380 ha         1 7CA       0.130000
     42 H4           1.3900     0.1650    -2.7670 ha         1 7CA       0.128000
     43 H5           1.0580     4.4090    -0.1760 ha         1 7CA       0.130000
     44 H6          -0.2850     2.4610     0.4950 ha         1 7CA       0.128000
     45 H14         -5.0710    -3.6890     0.1460 ha         1 7CA       0.153000
     46 HO4         -1.5980    -4.3820     0.3560 ho         1 7CA       0.521000
     47 HO10        -6.2850    -0.3850    -0.2160 ho         1 7CA       0.478000
     48 H171        -3.6560     1.4960    -1.0680 hc         1 7CA       0.048200
     49 H172        -5.3090     0.9770    -0.9750 hc         1 7CA       0.048200
     50 H181        -5.2770     1.1890     1.5190 hc         1 7CA       0.042700
     51 H182        -3.5570     1.5420     1.4790 hc         1 7CA       0.042700
     52 H19         -3.9970     3.6470     0.2090 hc         1 7CA       0.045700
     53 H201        -6.9700     3.0120     0.6440 hc         1 7CA       0.033200
     54 H202        -6.3300     4.5790     0.1050 hc         1 7CA       0.033200
     55 H203        -6.1350     3.1530    -0.9210 hc         1 7CA       0.033200
     56 H211        -3.7540     3.7020     2.6770 hc         1 7CA       0.033200
     57 H212        -4.8860     4.9490     2.1230 hc         1 7CA       0.033200
     58 H213        -5.5040     3.4600     2.8720 hc         1 7CA       0.033200
     59 H22          2.1390    -3.2510    -0.1310 h2         1 7CA       0.084700
     60 H23          3.9960    -2.0640    -1.3520 h1         1 7CA       0.058700
     61 HO7          4.5020    -3.9580    -0.0470 ho         1 7CA       0.506000
     62 H24          3.8610     0.1170    -0.2720 h1         1 7CA       0.053700
     63 HO8          6.2030    -1.4190    -0.0000 ho         1 7CA       0.442000
     64 H25          4.8150    -1.2730     2.2940 h1         1 7CA       0.069700
     65 HO9          5.4560     0.9940     1.7330 ho         1 7CA       0.504000
     66 H26          2.0810    -0.0170     1.6600 h1         1 7CA       0.056700
     67 H271         3.0380    -1.5660     4.1500 hc         1 7CA       0.044367
     68 H272         2.6370     0.1590     4.0960 hc         1 7CA       0.044367
     69 H273         1.3720    -1.0470     3.8350 hc         1 7CA       0.044367
@<TRIPOS>BOND
     1     1     2 1   
     2     1    38 1   
     3     1    39 1   
     4     1    40 1   
     5     2     3 1   
     6     3     4 ar  
     7     3     6 ar  
     8     4     5 ar  
     9     4    41 1   
    10     5     8 ar  
    11     5    42 1   
    12     6     7 ar  
    13     6    43 1   
    14     7     8 ar  
    15     7    44 1   
    16     8     9 1   
    17     9    10 1   
    18     9    11 2   
    19    10    14 1   
    20    11    12 1   
    21    11    27 1   
    22    12    13 1   
    23    12    15 2   
    24    13    14 ar  
    25    13    16 ar  
    26    14    19 ar  
    27    16    17 ar  
    28    16    20 1   
    29    17    18 ar  
    30    17    45 1   
    31    18    19 ar  
    32    18    21 1   
    33    19    22 1   
    34    20    46 1   
    35    21    47 1   
    36    22    23 1   
    37    22    48 1   
    38    22    49 1   
    39    23    24 1   
    40    23    50 1   
    41    23    51 1   
    42    24    25 1   
    43    24    26 1   
    44    24    52 1   
    45    25    53 1   
    46    25    54 1   
    47    25    55 1   
    48    26    56 1   
    49    26    57 1   
    50    26    58 1   
    51    27    28 1   
    52    28    29 1   
    53    28    30 1   
    54    28    59 1   
    55    29    36 1   
    56    30    31 1   
    57    30    32 1   
    58    30    60 1   
    59    31    61 1   
    60    32    33 1   
    61    32    34 1   
    62    32    62 1   
    63    33    63 1   
    64    34    35 1   
    65    34    36 1   
    66    34    64 1   
    67    35    65 1   
    68    36    37 1   
    69    36    66 1   
    70    37    67 1   
    71    37    68 1   
    72    37    69 1   
@<TRIPOS>SUBSTRUCTURE
     1 7CA         1 TEMP              0 ****  ****    0 ROOT
