@<TRIPOS>MOLECULE
7CA
   69    72     1     0     0
SMALL
abcg2


@<TRIPOS>ATOM
      1 C1           2.1560     5.8310    -0.5350 c3         1 7CA       0.146900
      2 O1           2.4820     4.6740    -1.2830 os         1 7CA      -0.335100
      3 C2           1.7700     3.5560    -1.0870 ca         1 7CA       0.168100
      4 C3           2.1390     2.4460    -1.8530 ca         1 7CA      -0.186500
      5 C4           1.4700     1.2490    -1.7120 ca         1 7CA      -0.026500
      6 C5           0.7090     3.4460    -0.1900 ca         1 7CA      -0.186500
      7 C6           0.0350     2.2410    -0.0670 ca         1 7CA      -0.026500
      8 C7           0.4090     1.1260    -0.8120 ca         1 7CA      -0.116800
      9 C8          -0.3320    -0.1280    -0.6800 cc         1 7CA       0.214900
     10 O2          -1.6590     0.0720    -0.6730 os         1 7CA      -0.207200
     11 C9           0.1940    -1.3730    -0.5890 cd         1 7CA      -0.098100
     12 C10         -0.6730    -2.5350    -0.5450 c          1 7CA       0.599900
     13 C11         -2.0870    -2.2530    -0.5110 ca         1 7CA      -0.377600
     14 C12         -2.5450    -0.9360    -0.5560 ca         1 7CA       0.245100
     15 O3          -0.2220    -3.6890    -0.5130 o          1 7CA      -0.600100
     16 C13         -3.0460    -3.2890    -0.4070 ca         1 7CA       0.279100
     17 C14         -4.3850    -2.9700    -0.3350 ca         1 7CA      -0.246000
     18 C15         -4.7930    -1.6320    -0.3680 ca         1 7CA       0.250100
     19 C16         -3.8860    -0.5750    -0.4950 ca         1 7CA      -0.259300
     20 O4          -2.6670    -4.5640    -0.3680 oh         1 7CA      -0.535100
     21 O10         -6.1130    -1.4310    -0.2680 oh         1 7CA      -0.522100
     22 C17         -4.2960     0.8730    -0.4890 c3         1 7CA      -0.011100
     23 C18         -4.2290     1.4860     0.9130 c3         1 7CA      -0.075400
     24 C19         -4.4930     2.9900     0.9540 c3         1 7CA      -0.061700
     25 C20         -5.8950     3.3430     0.4660 c3         1 7CA      -0.088600
     26 C21         -4.2650     3.5220     2.3650 c3         1 7CA      -0.088600
     27 O5           1.5350    -1.5730    -0.5590 os         1 7CA      -0.357100
     28 C22          2.0540    -1.9240     0.7200 c6         1 7CA       0.351300
     29 O6           2.1960    -0.8200     1.5380 os         1 7CA      -0.454000
     30 C23          3.3700    -2.6680     0.4860 c6         1 7CA       0.113300
     31 O7           3.7850    -3.2760     1.6830 oh         1 7CA      -0.695000
     32 C24          4.4630    -1.6980     0.0390 c6         1 7CA       0.187300
     33 O8           5.7120    -2.3280    -0.0700 oh         1 7CA      -0.629000
     34 C25          4.5710    -0.5530     1.0350 c6         1 7CA       0.150300
     35 O9           5.5230     0.3620     0.5480 oh         1 7CA      -0.705000
     36 C26          3.1990     0.1220     1.1650 c6         1 7CA       0.132300
     37 C27          3.1730     1.2230     2.2040 c3         1 7CA      -0.089100
     38 H11          2.8500     6.6060    -0.8490 h1         1 7CA       0.044367
     39 H12          1.1360     6.1700    -0.7340 h1         1 7CA       0.044367
     40 H13          2.2710     5.6670     0.5390 h1         1 7CA       0.044367
     41 H3           2.9570     2.5310    -2.5580 ha         1 7CA       0.130000
     42 H4           1.7720     0.4070    -2.3200 ha         1 7CA       0.128000
     43 H5           0.3930     4.2800     0.4210 ha         1 7CA       0.130000
     44 H6          -0.7820     2.1760     0.6410 ha         1 7CA       0.128000
     45 H14         -5.1280    -3.7530    -0.2470 ha         1 7CA       0.153000
     46 HO4         -1.6820    -4.5840    -0.4160 ho         1 7CA       0.521000
     47 HO10        -6.3350    -0.4940    -0.3190 ho         1 7CA       0.478000
     48 H171        -3.6540     1.4400    -1.1650 hc         1 7CA       0.048200
     49 H172        -5.2990     0.9960    -0.9070 hc         1 7CA       0.048200
     50 H181        -4.9420     0.9750     1.5710 hc         1 7CA       0.042700
     51 H182        -3.2390     1.2880     1.3340 hc         1 7CA       0.042700
     52 H19         -3.7680     3.4750     0.2880 hc         1 7CA       0.045700
     53 H201        -6.6560     2.8200     1.0510 hc         1 7CA       0.033200
     54 H202        -6.0830     4.4140     0.5600 hc         1 7CA       0.033200
     55 H203        -6.0470     3.0830    -0.5820 hc         1 7CA       0.033200
     56 H211        -3.2500     3.3170     2.7120 hc         1 7CA       0.033200
     57 H212        -4.4200     4.6010     2.4140 hc         1 7CA       0.033200
     58 H213        -4.9560     3.0580     3.0740 hc         1 7CA       0.033200
     59 H22          1.3490    -2.5830     1.2370 h2         1 7CA       0.084700
     60 H23          3.2040    -3.4160    -0.3020 h1         1 7CA       0.058700
     61 HO7          3.2020    -4.0180     1.8690 ho         1 7CA       0.506000
     62 H24          4.1540    -1.2730    -0.9280 h1         1 7CA       0.053700
     63 HO8          5.6620    -2.9790    -0.7760 ho         1 7CA       0.442000
     64 H25          4.8710    -0.9500     2.0160 h1         1 7CA       0.069700
     65 HO9          5.7700     0.9550     1.2620 ho         1 7CA       0.504000
     66 H26          2.9530     0.5580     0.1910 h1         1 7CA       0.056700
     67 H271         3.4520     0.8520     3.1920 hc         1 7CA       0.044367
     68 H272         3.8570     2.0260     1.9330 hc         1 7CA       0.044367
     69 H273         2.1780     1.6640     2.2650 hc         1 7CA       0.044367
@<TRIPOS>BOND
     1     1     2 1   
     2     1    38 1   
     3     1    39 1   
     4     1    40 1   
     5     2     3 1   
     6     3     4 ar  
     7     3     6 ar  
     8     4     5 ar  
     9     4    41 1   
    10     5     8 ar  
    11     5    42 1   
    12     6     7 ar  
    13     6    43 1   
    14     7     8 ar  
    15     7    44 1   
    16     8     9 1   
    17     9    10 1   
    18     9    11 2   
    19    10    14 1   
    20    11    12 1   
    21    11    27 1   
    22    12    13 1   
    23    12    15 2   
    24    13    14 ar  
    25    13    16 ar  
    26    14    19 ar  
    27    16    17 ar  
    28    16    20 1   
    29    17    18 ar  
    30    17    45 1   
    31    18    19 ar  
    32    18    21 1   
    33    19    22 1   
    34    20    46 1   
    35    21    47 1   
    36    22    23 1   
    37    22    48 1   
    38    22    49 1   
    39    23    24 1   
    40    23    50 1   
    41    23    51 1   
    42    24    25 1   
    43    24    26 1   
    44    24    52 1   
    45    25    53 1   
    46    25    54 1   
    47    25    55 1   
    48    26    56 1   
    49    26    57 1   
    50    26    58 1   
    51    27    28 1   
    52    28    29 1   
    53    28    30 1   
    54    28    59 1   
    55    29    36 1   
    56    30    31 1   
    57    30    32 1   
    58    30    60 1   
    59    31    61 1   
    60    32    33 1   
    61    32    34 1   
    62    32    62 1   
    63    33    63 1   
    64    34    35 1   
    65    34    36 1   
    66    34    64 1   
    67    35    65 1   
    68    36    37 1   
    69    36    66 1   
    70    37    67 1   
    71    37    68 1   
    72    37    69 1   
@<TRIPOS>SUBSTRUCTURE
     1 7CA         1 TEMP              0 ****  ****    0 ROOT
