@<TRIPOS>MOLECULE
7CB
   22    23     1     0     0
SMALL
No Charge or Current Charge


@<TRIPOS>ATOM
      1 O1           3.1550     0.6920     0.0290 o          1 7CB      -0.529000
      2 S            2.0830    -0.2900    -0.1120 sy         1 7CB       1.150600
      3 O            2.0780    -1.3000    -1.1700 o          1 7CB      -0.529000
      4 N1           2.1300    -1.1350     1.2870 n8         1 7CB      -1.007100
      5 C7           0.4770     0.5250    -0.0060 ca         1 7CB      -0.314500
      6 C8           0.4670     1.9360     0.0940 ca         1 7CB       0.028000
      7 C           -0.7440     2.6410     0.1590 ca         1 7CB      -0.144000
      8 C6          -0.7620    -0.1770    -0.0320 ca         1 7CB       0.068000
      9 C2          -1.9730     0.5510     0.0310 ca         1 7CB      -0.124000
     10 C1          -1.9640     1.9530     0.1240 ca         1 7CB      -0.022000
     11 C5          -0.8710    -1.5830    -0.1080 ca         1 7CB      -0.182000
     12 C4          -2.1380    -2.1860    -0.1300 ca         1 7CB       0.353900
     13 N           -3.2920    -1.4860    -0.0780 nb         1 7CB      -0.664000
     14 C3          -3.2000    -0.1400     0.0020 ca         1 7CB       0.375900
     15 H1           3.0530    -0.8810     1.6330 hn         1 7CB       0.480500
     16 H2           1.4970    -0.6030     1.8770 hn         1 7CB       0.480500
     17 H3           1.3970     2.5030     0.1150 ha         1 7CB       0.147000
     18 H4          -0.7360     3.7260     0.2330 ha         1 7CB       0.127000
     19 H5          -2.8980     2.5100     0.1730 ha         1 7CB       0.122000
     20 H6          -0.0070    -2.2340    -0.1420 ha         1 7CB       0.135000
     21 H7          -2.2330    -3.2700    -0.1880 h4         1 7CB       0.026100
     22 H8          -4.1440     0.4010     0.0470 h4         1 7CB       0.022100
@<TRIPOS>BOND
     1     1     2 2   
     2     2     3 2   
     3     2     4 1   
     4     2     5 1   
     5     4    15 1   
     6     4    16 1   
     7     5     6 ar  
     8     5     8 ar  
     9     6     7 ar  
    10     6    17 1   
    11     7    10 ar  
    12     7    18 1   
    13     8     9 ar  
    14     8    11 ar  
    15     9    10 ar  
    16     9    14 ar  
    17    10    19 1   
    18    11    12 ar  
    19    11    20 1   
    20    12    13 ar  
    21    12    21 1   
    22    13    14 ar  
    23    14    22 1   
@<TRIPOS>SUBSTRUCTURE
     1 7CB         1 TEMP              0 ****  ****    0 ROOT
