@<TRIPOS>MOLECULE
7CB
   22    23     1     0     0
SMALL
bcc


@<TRIPOS>ATOM
      1 O1           3.1000     0.7700    -0.1440 o          1 7CB      -0.599800
      2 S            2.0710    -0.2530    -0.1180 sy         1 7CB       1.292200
      3 O            2.0210    -1.2480    -1.1750 o          1 7CB      -0.599800
      4 N1           2.2650    -1.0710     1.2900 n8         1 7CB      -0.896700
      5 C7           0.4960     0.5750    -0.0440 ca         1 7CB      -0.314500
      6 C8           0.5020     1.9440     0.0130 ca         1 7CB       0.010000
      7 C           -0.7030     2.6680     0.0900 ca         1 7CB      -0.162000
      8 C6          -0.7260    -0.1540    -0.0310 ca         1 7CB       0.068000
      9 C2          -1.9250     0.5950     0.0620 ca         1 7CB      -0.189300
     10 C1          -1.8950     2.0040     0.1190 ca         1 7CB      -0.040000
     11 C5          -0.8650    -1.5590    -0.0880 ca         1 7CB      -0.265300
     12 C4          -2.1140    -2.1140    -0.0400 ca         1 7CB       0.419200
     13 N           -3.2570    -1.4030     0.0540 nb         1 7CB      -0.664000
     14 C3          -3.1540    -0.1040     0.0990 ca         1 7CB       0.441200
     15 H1           2.2960    -0.4800     2.1130 hn         1 7CB       0.425300
     16 H2           1.6430    -1.8610     1.4190 hn         1 7CB       0.425300
     17 H3           1.4350     2.4900     0.0020 ha         1 7CB       0.165000
     18 H4          -0.6680     3.7480     0.1310 ha         1 7CB       0.145000
     19 H5          -2.8280     2.5490     0.1870 ha         1 7CB       0.140000
     20 H6          -0.0190    -2.2210    -0.1910 ha         1 7CB       0.153000
     21 H7          -2.2260    -3.1900    -0.0820 h4         1 7CB       0.026100
     22 H8          -4.0740     0.4680     0.1710 h4         1 7CB       0.022100
@<TRIPOS>BOND
     1     1     2 2   
     2     2     3 2   
     3     2     4 1   
     4     2     5 1   
     5     4    15 1   
     6     4    16 1   
     7     5     6 ar  
     8     5     8 ar  
     9     6     7 ar  
    10     6    17 1   
    11     7    10 ar  
    12     7    18 1   
    13     8     9 ar  
    14     8    11 ar  
    15     9    10 ar  
    16     9    14 ar  
    17    10    19 1   
    18    11    12 ar  
    19    11    20 1   
    20    12    13 ar  
    21    12    21 1   
    22    13    14 ar  
    23    14    22 1   
@<TRIPOS>SUBSTRUCTURE
     1 7CB         1 TEMP              0 ****  ****    0 ROOT
