@<TRIPOS>MOLECULE
7CC
   28    27     1     0     0
SMALL
abcg2


@<TRIPOS>ATOM
      1 O01          3.6460    -0.0280     1.0460 o          1 7CC      -0.732000
      2 C02          2.9960     0.2380     0.0170 c          1 7CC       0.718000
      3 C22          1.7550    -0.6340    -0.2860 c3         1 7CC       0.034500
      4 C23          0.5160     0.1870     0.1000 c3         1 7CC      -0.176400
      5 C24         -0.7950    -0.4270    -0.3560 c          1 7CC       0.595100
      6 N25         -1.9360     0.2040    -0.0050 n          1 7CC      -0.427800
      7 C26         -1.9900     1.4260     0.7830 c3         1 7CC       0.106000
      8 C27         -2.0270     2.6830    -0.0730 c3         1 7CC      -0.111100
      9 C28         -3.2140    -0.3440    -0.4360 c3         1 7CC       0.106000
     10 C29         -3.7610    -1.3820     0.5320 c3         1 7CC      -0.111100
     11 O30         -0.8180    -1.4520    -1.0310 o          1 7CC      -0.622100
     12 N31          1.8580    -1.9230     0.3720 n8         1 7CC      -0.989200
     13 H18          1.7250    -0.7980    -1.3670 h1         1 7CC       0.062700
     14 H19          0.5070     0.3180     1.1880 hc         1 7CC       0.062200
     15 H20          0.5980     1.1940    -0.3220 hc         1 7CC       0.062200
     16 H21         -2.8840     1.3750     1.4080 h1         1 7CC       0.043200
     17 H22         -1.1490     1.4660     1.4730 h1         1 7CC       0.043200
     18 H23         -2.1010     3.5700     0.5580 hc         1 7CC       0.035867
     19 H24         -1.1230     2.7760    -0.6760 hc         1 7CC       0.035867
     20 H25         -2.8850     2.6810    -0.7470 hc         1 7CC       0.035867
     21 H26         -3.9190     0.4850    -0.5300 h1         1 7CC       0.043200
     22 H27         -3.1100    -0.7730    -1.4310 h1         1 7CC       0.043200
     23 H28         -3.0880    -2.2350     0.6130 hc         1 7CC       0.035867
     24 H29         -3.8980    -0.9600     1.5280 hc         1 7CC       0.035867
     25 H30         -4.7300    -1.7470     0.1880 hc         1 7CC       0.035867
     26 H31          2.1070    -1.7740     1.3420 hn         1 7CC       0.383000
     27 H2           0.9640    -2.3950     0.3560 hn         1 7CC       0.383000
     28 OXT          3.2180     1.1710    -0.7820 o          1 7CC      -0.732000
@<TRIPOS>BOND
     1     1     2 1   
     2     2     3 1   
     3     2    28 1   
     4     3     4 1   
     5     3    12 1   
     6     3    13 1   
     7     4     5 1   
     8     4    14 1   
     9     4    15 1   
    10     5     6 1   
    11     5    11 2   
    12     6     7 1   
    13     6     9 1   
    14     7     8 1   
    15     7    16 1   
    16     7    17 1   
    17     8    18 1   
    18     8    19 1   
    19     8    20 1   
    20     9    10 1   
    21     9    21 1   
    22     9    22 1   
    23    10    23 1   
    24    10    24 1   
    25    10    25 1   
    26    12    26 1   
    27    12    27 1   
@<TRIPOS>SUBSTRUCTURE
     1 7CC         1 TEMP              0 ****  ****    0 ROOT
