@<TRIPOS>MOLECULE
7CC
   28    27     1     0     0
SMALL
No Charge or Current Charge


@<TRIPOS>ATOM
      1 O01          3.4610     0.7740     0.9400 o          1 7CC      -0.732000
      2 C02          3.1120     0.4080    -0.1770 c          1 7CC       0.718000
      3 C22          1.8880    -0.5960    -0.2990 c3         1 7CC       0.034500
      4 C23          0.5790     0.0570     0.2230 c3         1 7CC      -0.176400
      5 C24         -0.7550    -0.5170    -0.3070 c          1 7CC       0.595100
      6 N25         -1.9690     0.1530     0.0030 n          1 7CC      -0.427800
      7 C26         -2.0270     1.3710     0.8500 c3         1 7CC       0.106000
      8 C27         -2.0370     2.6730     0.0290 c3         1 7CC      -0.111100
      9 C28         -3.2630    -0.3580    -0.5110 c3         1 7CC       0.106000
     10 C29         -3.9860    -1.2760     0.4910 c3         1 7CC      -0.111100
     11 O30         -0.7700    -1.5380    -0.9830 o          1 7CC      -0.622100
     12 N31          2.0680    -1.9480     0.3400 n8         1 7CC      -0.989200
     13 H18          1.7600    -0.7620    -1.3790 h1         1 7CC       0.062700
     14 H19          0.5440     0.0730     1.3180 hc         1 7CC       0.062200
     15 H20          0.5780     1.1300     0.0020 hc         1 7CC       0.062200
     16 H21         -2.9450     1.3360     1.4500 h1         1 7CC       0.043200
     17 H22         -1.1950     1.3920     1.5630 h1         1 7CC       0.043200
     18 H23         -2.0830     3.5420     0.6970 hc         1 7CC       0.035867
     19 H24         -1.1310     2.7570    -0.5830 hc         1 7CC       0.035867
     20 H25         -2.9080     2.7070    -0.6370 hc         1 7CC       0.035867
     21 H26         -3.9160     0.4940    -0.7390 h1         1 7CC       0.043200
     22 H27         -3.1080    -0.8990    -1.4530 h1         1 7CC       0.043200
     23 H28         -3.3690    -2.1510     0.7270 hc         1 7CC       0.035867
     24 H29         -4.2030    -0.7420     1.4240 hc         1 7CC       0.035867
     25 H30         -4.9350    -1.6270     0.0680 hc         1 7CC       0.035867
     26 H31          2.1920    -1.8250     1.3520 hn         1 7CC       0.383000
     27 H2           1.1880    -2.4710     0.2540 hn         1 7CC       0.383000
     28 OXT          3.6920     0.7450    -1.2010 o          1 7CC      -0.732000
@<TRIPOS>BOND
     1     1     2 1   
     2     2     3 1   
     3     2    28 1   
     4     3     4 1   
     5     3    12 1   
     6     3    13 1   
     7     4     5 1   
     8     4    14 1   
     9     4    15 1   
    10     5     6 1   
    11     5    11 2   
    12     6     7 1   
    13     6     9 1   
    14     7     8 1   
    15     7    16 1   
    16     7    17 1   
    17     8    18 1   
    18     8    19 1   
    19     8    20 1   
    20     9    10 1   
    21     9    21 1   
    22     9    22 1   
    23    10    23 1   
    24    10    24 1   
    25    10    25 1   
    26    12    26 1   
    27    12    27 1   
@<TRIPOS>SUBSTRUCTURE
     1 7CC         1 TEMP              0 ****  ****    0 ROOT
