@<TRIPOS>MOLECULE
7CD
   23    24     1     0     0
SMALL
abcg2


@<TRIPOS>ATOM
      1 C11         -0.6440    -2.1590     0.1370 ca         1 7CD      -0.096000
      2 C10          0.6760    -2.4860     0.0170 ca         1 7CD      -0.110000
      3 C12         -1.0540    -0.8050     0.0660 ca         1 7CD      -0.039000
      4 C14         -0.5200     1.5580    -0.1830 ca         1 7CD      -0.084000
      5 C13         -0.0800     0.2130    -0.1190 ca         1 7CD      -0.014000
      6 C15         -1.8490     1.8710    -0.0810 ca         1 7CD      -0.115000
      7 N06          2.5440     1.7080     0.7200 n8         1 7CD      -0.994200
      8 C08          1.2920    -0.1510    -0.2570 ca         1 7CD      -0.067300
      9 C09          1.6390    -1.4760    -0.1840 ca         1 7CD      -0.110000
     10 C16         -2.8120     0.8570     0.0970 ca         1 7CD      -0.106000
     11 C17         -2.4200    -0.4510     0.1720 ca         1 7CD      -0.104000
     12 H1          -1.3930    -2.9280     0.2820 ha         1 7CD       0.112000
     13 H2           0.9890    -3.5210     0.0710 ha         1 7CD       0.112000
     14 H3           0.2050     2.3510    -0.2930 ha         1 7CD       0.126000
     15 H4          -2.1640     2.9050    -0.1320 ha         1 7CD       0.111000
     16 H7           2.9630     1.1460     1.4510 hn         1 7CD       0.395000
     17 H8           2.0740     1.5510    -1.2930 h1         1 7CD       0.033700
     18 H9           3.2750     0.3800    -0.7990 h1         1 7CD       0.033700
     19 H10          2.6800    -1.7590    -0.2880 ha         1 7CD       0.106000
     20 H11         -3.8600     1.1170     0.1760 ha         1 7CD       0.111000
     21 H12         -3.1540    -1.2360     0.3090 ha         1 7CD       0.111000
     22 H5           3.2110     2.4420     0.5180 hn         1 7CD       0.395000
     23 C07          2.3600     0.8890    -0.4700 c3         1 7CD       0.193100
@<TRIPOS>BOND
     1     1     2 ar  
     2     1     3 ar  
     3     1    12 1   
     4     2     9 ar  
     5     2    13 1   
     6     3     5 ar  
     7     3    11 ar  
     8     4     5 ar  
     9     4     6 ar  
    10     4    14 1   
    11     5     8 ar  
    12     6    10 ar  
    13     6    15 1   
    14     7    16 1   
    15     7    22 1   
    16     7    23 1   
    17     8     9 ar  
    18     8    23 1   
    19     9    19 1   
    20    10    11 ar  
    21    10    20 1   
    22    11    21 1   
    23    17    23 1   
    24    18    23 1   
@<TRIPOS>SUBSTRUCTURE
     1 7CD         1 TEMP              0 ****  ****    0 ROOT
