@<TRIPOS>MOLECULE
7CD
   23    24     1     0     0
SMALL
No Charge or Current Charge


@<TRIPOS>ATOM
      1 C11         -0.6590    -2.1380     0.1510 ca         1 7CD      -0.096000
      2 C10          0.7000    -2.4630     0.0500 ca         1 7CD      -0.110000
      3 C12         -1.0720    -0.7970     0.0580 ca         1 7CD      -0.039000
      4 C14         -0.5720     1.5720    -0.2190 ca         1 7CD      -0.084000
      5 C13         -0.1180     0.2340    -0.1380 ca         1 7CD      -0.014000
      6 C15         -1.9420     1.8720    -0.1140 ca         1 7CD      -0.115000
      7 N06          2.7230     1.6550     0.7590 n8         1 7CD      -0.994200
      8 C08          1.2610    -0.0990    -0.2460 ca         1 7CD      -0.067300
      9 C09          1.6520    -1.4510    -0.1480 ca         1 7CD      -0.110000
     10 C16         -2.8770     0.8430     0.0750 ca         1 7CD      -0.106000
     11 C17         -2.4430    -0.4880     0.1620 ca         1 7CD      -0.104000
     12 H1          -1.3900    -2.9290     0.3020 ha         1 7CD       0.112000
     13 H2           1.0180    -3.5010     0.1230 ha         1 7CD       0.112000
     14 H3           0.1240     2.3940    -0.3560 ha         1 7CD       0.126000
     15 H4          -2.2770     2.9050    -0.1770 ha         1 7CD       0.111000
     16 H7           3.0970     0.9680     1.4250 hn         1 7CD       0.395000
     17 H8           2.0190     1.6830    -1.2310 h1         1 7CD       0.033700
     18 H9           3.2490     0.4610    -0.8840 h1         1 7CD       0.033700
     19 H10          2.7030    -1.7210    -0.2280 ha         1 7CD       0.106000
     20 H11         -3.9360     1.0780     0.1560 ha         1 7CD       0.111000
     21 H12         -3.1730    -1.2800     0.3120 ha         1 7CD       0.111000
     22 H5           3.5240     2.2680     0.5660 hn         1 7CD       0.395000
     23 C07          2.3500     0.9500    -0.4830 c3         1 7CD       0.193100
@<TRIPOS>BOND
     1     1     2 ar  
     2     1     3 ar  
     3     1    12 1   
     4     2     9 ar  
     5     2    13 1   
     6     3     5 ar  
     7     3    11 ar  
     8     4     5 ar  
     9     4     6 ar  
    10     4    14 1   
    11     5     8 ar  
    12     6    10 ar  
    13     6    15 1   
    14     7    16 1   
    15     7    22 1   
    16     7    23 1   
    17     8     9 ar  
    18     8    23 1   
    19     9    19 1   
    20    10    11 ar  
    21    10    20 1   
    22    11    21 1   
    23    17    23 1   
    24    18    23 1   
@<TRIPOS>SUBSTRUCTURE
     1 7CD         1 TEMP              0 ****  ****    0 ROOT
