@<TRIPOS>MOLECULE
7CE
   37    40     1     0     0
SMALL
abcg2


@<TRIPOS>ATOM
      1 C16          5.4540    -2.6990    -0.1030 c3         1 7CE       0.156900
      2 O1           4.3820    -1.7800    -0.1060 os         1 7CE      -0.370100
      3 C11          4.6520    -0.4570    -0.0330 ca         1 7CE       0.073100
      4 C12          5.9270     0.0770     0.0280 ca         1 7CE      -0.165000
      5 C13          6.1100     1.4570     0.1000 ca         1 7CE      -0.111000
      6 C14          5.0080     2.2880     0.1090 ca         1 7CE      -0.113000
      7 C15          3.7200     1.7630     0.0500 ca         1 7CE      -0.117000
      8 C10          3.5130     0.3870    -0.0190 ca         1 7CE       0.300000
      9 N3           2.2850    -0.2520    -0.0760 nu         1 7CE      -0.934900
     10 C2           0.9980     0.2320    -0.0600 ca         1 7CE       0.645900
     11 N            0.7970     1.5560    -0.0300 nb         1 7CE      -0.752000
     12 C1          -0.4350     2.0340    -0.0150 ca         1 7CE       0.445900
     13 C3          -0.0440    -0.7000    -0.0800 ca         1 7CE      -0.274000
     14 C4          -1.3260    -0.1820    -0.0630 ca         1 7CE       0.037800
     15 N1          -2.5370    -0.7920    -0.0700 na         1 7CE      -0.218700
     16 C5          -3.5320     0.1650    -0.0430 cc         1 7CE      -0.123900
     17 C6          -2.9690     1.4100    -0.0180 cd         1 7CE      -0.165200
     18 C           -1.5560     1.2140    -0.0300 ca         1 7CE      -0.211800
     19 C7          -4.9230    -0.1970    -0.0420 cc         1 7CE       0.175800
     20 C9          -6.0880     0.4980    -0.0440 cd         1 7CE       0.246900
     21 N2          -7.1360    -0.3930    -0.0410 nd         1 7CE      -0.669000
     22 C8          -6.5840    -1.5520    -0.0370 cc         1 7CE       0.435900
     23 O           -5.2470    -1.5140    -0.0370 os         1 7CE      -0.274000
     24 H161         5.0110    -3.6890    -0.1700 h1         1 7CE       0.040033
     25 H162         6.1200    -2.5510    -0.9570 h1         1 7CE       0.040033
     26 H163         6.0410    -2.6370     0.8170 h1         1 7CE       0.040033
     27 H12          6.7930    -0.5710     0.0210 ha         1 7CE       0.114000
     28 H13          7.1130     1.8610     0.1470 ha         1 7CE       0.113000
     29 H14          5.1330     3.3620     0.1610 ha         1 7CE       0.114000
     30 H15          2.8700     2.4240     0.0590 ha         1 7CE       0.152000
     31 H3           2.3450    -1.2570    -0.1040 hn         1 7CE       0.510000
     32 HA           0.1470    -1.7660    -0.1040 ha         1 7CE       0.126000
     33 H1          -0.5360     3.1140     0.0100 h4         1 7CE       0.022100
     34 HB          -2.6830    -1.7890    -0.0910 hn         1 7CE       0.362000
     35 H6          -3.4980     2.3490     0.0100 ha         1 7CE       0.211000
     36 H9          -6.2360     1.5660    -0.0480 h4         1 7CE       0.054100
     37 H8          -7.0560    -2.5220    -0.0340 h5         1 7CE       0.085100
@<TRIPOS>BOND
     1     1     2 1   
     2     1    24 1   
     3     1    25 1   
     4     1    26 1   
     5     2     3 1   
     6     3     4 ar  
     7     3     8 ar  
     8     4     5 ar  
     9     4    27 1   
    10     5     6 ar  
    11     5    28 1   
    12     6     7 ar  
    13     6    29 1   
    14     7     8 ar  
    15     7    30 1   
    16     8     9 1   
    17     9    10 1   
    18     9    31 1   
    19    10    11 ar  
    20    10    13 ar  
    21    11    12 ar  
    22    12    18 ar  
    23    12    33 1   
    24    13    14 ar  
    25    13    32 1   
    26    14    15 1   
    27    14    18 ar  
    28    15    16 1   
    29    15    34 1   
    30    16    17 2   
    31    16    19 1   
    32    17    18 1   
    33    17    35 1   
    34    19    20 2   
    35    19    23 1   
    36    20    21 1   
    37    20    36 1   
    38    21    22 2   
    39    22    23 1   
    40    22    37 1   
@<TRIPOS>SUBSTRUCTURE
     1 7CE         1 TEMP              0 ****  ****    0 ROOT
