@<TRIPOS>MOLECULE
7CE
   37    40     1     0     0
SMALL
No Charge or Current Charge


@<TRIPOS>ATOM
      1 C16          5.6100    -2.6590    -0.6030 c3         1 7CE       0.156900
      2 O1           4.5130    -1.7750    -0.3040 os         1 7CE      -0.370100
      3 C11          4.6950    -0.4230    -0.0380 ca         1 7CE       0.073100
      4 C12          5.9820     0.1660    -0.0420 ca         1 7CE      -0.165000
      5 C13          6.1340     1.5320     0.2450 ca         1 7CE      -0.111000
      6 C14          5.0110     2.3170     0.5460 ca         1 7CE      -0.113000
      7 C15          3.7290     1.7410     0.5500 ca         1 7CE      -0.117000
      8 C10          3.5520     0.3760     0.2430 ca         1 7CE       0.300000
      9 N3           2.2880    -0.2400     0.2560 nu         1 7CE      -0.934900
     10 C2           0.9870     0.1730     0.0930 ca         1 7CE       0.645900
     11 N            0.8150     1.4290    -0.3570 nb         1 7CE      -0.752000
     12 C1          -0.4550     1.8610    -0.5610 ca         1 7CE       0.445900
     13 C3          -0.0630    -0.7280     0.3430 ca         1 7CE      -0.274000
     14 C4          -1.3570    -0.2600     0.1270 ca         1 7CE       0.037800
     15 N1          -2.5790    -0.8910     0.2850 na         1 7CE      -0.218700
     16 C5          -3.6040     0.0080    -0.0690 cc         1 7CE      -0.123900
     17 C6          -2.9760     1.1880    -0.4430 cd         1 7CE      -0.165200
     18 C           -1.5460     1.0140    -0.3180 ca         1 7CE      -0.211800
     19 C7          -5.0120    -0.2730    -0.0380 cc         1 7CE       0.175800
     20 C9          -6.0320     0.5770    -0.3750 cd         1 7CE       0.246900
     21 N2          -7.2280    -0.0970    -0.2000 nd         1 7CE      -0.669000
     22 C8          -6.8580    -1.3030     0.2290 cc         1 7CE       0.435900
     23 O           -5.5070    -1.4740     0.3490 os         1 7CE      -0.274000
     24 H161         5.2400    -3.6770    -0.7800 h1         1 7CE       0.040033
     25 H162         6.1420    -2.3300    -1.5050 h1         1 7CE       0.040033
     26 H163         6.3200    -2.6960     0.2330 h1         1 7CE       0.040033
     27 H12          6.8710    -0.4180    -0.2600 ha         1 7CE       0.114000
     28 H13          7.1250     1.9820     0.2440 ha         1 7CE       0.113000
     29 H14          5.1330     3.3730     0.7810 ha         1 7CE       0.114000
     30 H15          2.8770     2.3610     0.8090 ha         1 7CE       0.152000
     31 H3           2.3620    -1.2540     0.2540 hn         1 7CE       0.510000
     32 HA           0.1260    -1.7380     0.6930 ha         1 7CE       0.126000
     33 H1          -0.5900     2.8800    -0.9210 h4         1 7CE       0.022100
     34 HB          -2.7110    -1.8450     0.6040 hn         1 7CE       0.362000
     35 H6          -3.4790     2.0940    -0.7760 ha         1 7CE       0.211000
     36 H9          -5.9800     1.6010    -0.7220 h4         1 7CE       0.054100
     37 H8          -7.5040    -2.1360     0.4830 h5         1 7CE       0.085100
@<TRIPOS>BOND
     1     1     2 1   
     2     1    24 1   
     3     1    25 1   
     4     1    26 1   
     5     2     3 1   
     6     3     4 ar  
     7     3     8 ar  
     8     4     5 ar  
     9     4    27 1   
    10     5     6 ar  
    11     5    28 1   
    12     6     7 ar  
    13     6    29 1   
    14     7     8 ar  
    15     7    30 1   
    16     8     9 1   
    17     9    10 1   
    18     9    31 1   
    19    10    11 ar  
    20    10    13 ar  
    21    11    12 ar  
    22    12    18 ar  
    23    12    33 1   
    24    13    14 ar  
    25    13    32 1   
    26    14    15 1   
    27    14    18 ar  
    28    15    16 1   
    29    15    34 1   
    30    16    17 2   
    31    16    19 1   
    32    17    18 1   
    33    17    35 1   
    34    19    20 2   
    35    19    23 1   
    36    20    21 1   
    37    20    36 1   
    38    21    22 2   
    39    22    23 1   
    40    22    37 1   
@<TRIPOS>SUBSTRUCTURE
     1 7CE         1 TEMP              0 ****  ****    0 ROOT
