@<TRIPOS>MOLECULE
7CF
   97   102     1     0     0
SMALL
No Charge or Current Charge


@<TRIPOS>ATOM
      1 C1          -2.8940     2.2220     1.4130 c3         1 7CF      -0.089100
      2 C2          -2.8250     0.7000     1.6990 c3         1 7CF      -0.049700
      3 C3          -1.4450     0.1170     1.2490 c3         1 7CF      -0.070400
      4 C4          -0.1980     0.6850     1.9810 c3         1 7CF      -0.154400
      5 C5           1.0580    -0.1350     1.6640 c          1 7CF       0.600100
      6 O1           1.2620    -1.2350     2.1590 o          1 7CF      -0.597100
      7 N1           1.9470     0.4820     0.8050 ns         1 7CF      -0.505900
      8 C6           3.1980    -0.2150     0.4700 c5         1 7CF       0.093700
      9 N2           5.2020     0.3020    -0.6140 n          1 7CF      -0.413800
     10 C8           6.1350     0.4740    -1.6450 c          1 7CF       0.646100
     11 O2           5.8270     0.7710    -2.7900 o          1 7CF      -0.542000
     12 O3           7.4140     0.2620    -1.2130 os         1 7CF      -0.457100
     13 C9           8.4740     0.4020    -2.1710 c3         1 7CF       0.228900
     14 C10          9.7910     0.1210    -1.4610 ca         1 7CF      -0.081300
     15 C11         10.3160    -1.1870    -1.4240 ca         1 7CF      -0.080500
     16 C12         11.5290    -1.4440    -0.7620 ca         1 7CF       0.119500
     17 Cl1         12.1750    -3.0800    -0.7210 cl         1 7CF      -0.189000
     18 C13         12.2260    -0.4010    -0.1320 ca         1 7CF      -0.088000
     19 C14         11.7060     0.9020    -0.1640 ca         1 7CF       0.119500
     20 Cl2         12.5740     2.2110     0.6280 cl         1 7CF      -0.189000
     21 C15         10.4930     1.1640    -0.8250 ca         1 7CF      -0.080500
     22 C16         -4.0240    -0.1120     1.0230 c5         1 7CF      -0.053700
     23 C17         -4.0160    -1.6360     1.4010 c5         1 7CF      -0.081400
     24 C18         -5.4900    -2.1240     1.2790 c5         1 7CF      -0.062400
     25 C19         -6.2350    -0.9170     0.6470 c5         1 7CF      -0.053700
     26 C20         -7.8010    -0.9110     0.7250 c6         1 7CF      -0.037700
     27 C21         -8.4780    -2.1350     0.0180 c6         1 7CF       0.174300
     28 O4          -8.1880    -3.3590     0.7020 oh         1 7CF      -0.662000
     29 C22        -10.0240    -1.9890    -0.0370 c6         1 7CF      -0.107400
     30 C23        -10.5070    -0.6690    -0.7060 c6         1 7CF      -0.046700
     31 C24        -10.2020    -0.6860    -2.2410 c6         1 7CF      -0.072400
     32 C25        -10.6890     0.6020    -2.9440 c6         1 7CF       0.171300
     33 O5         -10.3280     0.5720    -4.3270 oh         1 7CF      -0.660000
     34 C26        -10.0840     1.8540    -2.2690 c6         1 7CF      -0.111400
     35 C27        -10.4250     1.8720    -0.7590 c6         1 7CF      -0.066400
     36 C28         -9.9270     0.6030     0.0210 c6         1 7CF      -0.032000
     37 C29        -10.5140     0.7070     1.4710 c3         1 7CF      -0.086100
     38 C30         -8.3270     0.4730     0.0740 c6         1 7CF      -0.046700
     39 C31         -7.6270     1.7550     0.6910 c6         1 7CF      -0.070400
     40 C32         -6.0820     1.6350     0.6530 c6         1 7CF      -0.064400
     41 C33         -5.5370     0.3130     1.3390 c5         1 7CF      -0.039000
     42 C34         -5.7940     0.4310     2.8810 c3         1 7CF      -0.078100
     43 C35          3.7460     0.4530    -0.8210 c5         1 7CF       0.096000
     44 C7           4.2360     0.2340     1.5280 c5         1 7CF      -0.112400
     45 C37          5.5640    -0.0510     0.7780 c5         1 7CF       0.120000
     46 H1          -3.0480     2.4180     0.3450 hc         1 7CF       0.031367
     47 H2          -3.7070     2.6830     1.9820 hc         1 7CF       0.031367
     48 H3          -1.9860     2.7440     1.7280 hc         1 7CF       0.031367
     49 H4          -2.8340     0.6110     2.8070 hc         1 7CF       0.046700
     50 H5          -1.4460    -0.9670     1.4150 hc         1 7CF       0.056700
     51 H6          -1.3240     0.2590     0.1680 hc         1 7CF       0.056700
     52 H7          -0.0380     1.7230     1.6700 hc         1 7CF       0.055700
     53 H8          -0.3770     0.6400     3.0620 hc         1 7CF       0.055700
     54 H9           1.6940     1.3990     0.4550 hn         1 7CF       0.311500
     55 H10          3.1180    -1.3080     0.3760 h1         1 7CF       0.090700
     56 H11          8.3450    -0.3050    -3.0020 h1         1 7CF       0.061200
     57 H12          8.4910     1.4170    -2.5900 h1         1 7CF       0.061200
     58 H13          9.7830    -2.0050    -1.9040 ha         1 7CF       0.136500
     59 H14         13.1630    -0.6020     0.3790 ha         1 7CF       0.146000
     60 H15         10.0990     2.1780    -0.8380 ha         1 7CF       0.136500
     61 H16         -3.8560    -0.0180    -0.0580 hc         1 7CF       0.044700
     62 H17         -3.3580    -2.2050     0.7340 hc         1 7CF       0.042200
     63 H18         -3.6450    -1.8010     2.4190 hc         1 7CF       0.042200
     64 H19         -5.5570    -3.0200     0.6520 hc         1 7CF       0.050200
     65 H20         -5.9070    -2.3880     2.2570 hc         1 7CF       0.050200
     66 H21         -6.0230    -0.9050    -0.4290 hc         1 7CF       0.038700
     67 H22         -8.0900    -0.9370     1.7820 hc         1 7CF       0.063700
     68 H23         -8.0930    -2.1940    -1.0100 h1         1 7CF       0.030700
     69 H24         -8.6140    -4.0760     0.1850 ho         1 7CF       0.439000
     70 H25        -10.4500    -2.8430    -0.5820 hc         1 7CF       0.046200
     71 H26        -10.4360    -2.0620     0.9780 hc         1 7CF       0.046200
     72 H27        -11.6020    -0.6420    -0.6070 hc         1 7CF       0.045700
     73 H28         -9.1300    -0.8170    -2.4320 hc         1 7CF       0.053200
     74 H29        -10.6970    -1.5510    -2.7010 hc         1 7CF       0.053200
     75 H30        -11.7840     0.6530    -2.8500 h1         1 7CF       0.025700
     76 H31        -10.6890     1.3920    -4.7290 ho         1 7CF       0.441000
     77 H32         -8.9970     1.8860    -2.4190 hc         1 7CF       0.046200
     78 H33        -10.4870     2.7600    -2.7420 hc         1 7CF       0.046200
     79 H34        -10.0460     2.7950    -0.3040 hc         1 7CF       0.041200
     80 H35        -11.5180     1.9440    -0.6610 hc         1 7CF       0.041200
     81 H36        -11.6100     0.6590     1.4590 hc         1 7CF       0.034700
     82 H37        -10.1670    -0.0940     2.1320 hc         1 7CF       0.034700
     83 H38        -10.2460     1.6560     1.9490 hc         1 7CF       0.034700
     84 H39         -7.9770     0.4470    -0.9650 hc         1 7CF       0.047700
     85 H40         -7.9030     2.6560     0.1290 hc         1 7CF       0.038700
     86 H41         -7.9620     1.9220     1.7220 hc         1 7CF       0.038700
     87 H42         -5.7490     1.6610    -0.3940 hc         1 7CF       0.039200
     88 H43         -5.6640     2.5300     1.1240 hc         1 7CF       0.039200
     89 H44         -6.8600     0.4880     3.1240 hc         1 7CF       0.032367
     90 H45         -5.3860    -0.4130     3.4470 hc         1 7CF       0.032367
     91 H46         -5.3250     1.3340     3.2870 hc         1 7CF       0.032367
     92 H47          3.3950    -0.0580    -1.7280 h1         1 7CF       0.065200
     93 H48          3.4820     1.5160    -0.8920 h1         1 7CF       0.065200
     94 H49          4.1490     1.3020     1.7630 hc         1 7CF       0.058200
     95 H50          4.1570    -0.3200     2.4700 hc         1 7CF       0.058200
     96 H51          5.8490    -1.1100     0.8460 h1         1 7CF       0.056700
     97 H52          6.3910     0.5590     1.1660 h1         1 7CF       0.056700
@<TRIPOS>BOND
     1     1     2 1   
     2     1    46 1   
     3     1    47 1   
     4     1    48 1   
     5     2     3 1   
     6     2    22 1   
     7     2    49 1   
     8     3     4 1   
     9     3    50 1   
    10     3    51 1   
    11     4     5 1   
    12     4    52 1   
    13     4    53 1   
    14     5     6 2   
    15     5     7 1   
    16     7     8 1   
    17     7    54 1   
    18     8    43 1   
    19     8    44 1   
    20     8    55 1   
    21     9    10 1   
    22     9    43 1   
    23     9    45 1   
    24    10    11 2   
    25    10    12 1   
    26    12    13 1   
    27    13    14 1   
    28    13    56 1   
    29    13    57 1   
    30    14    15 ar  
    31    14    21 ar  
    32    15    16 ar  
    33    15    58 1   
    34    16    17 1   
    35    16    18 ar  
    36    18    19 ar  
    37    18    59 1   
    38    19    20 1   
    39    19    21 ar  
    40    21    60 1   
    41    22    23 1   
    42    22    41 1   
    43    22    61 1   
    44    23    24 1   
    45    23    62 1   
    46    23    63 1   
    47    24    25 1   
    48    24    64 1   
    49    24    65 1   
    50    25    26 1   
    51    25    41 1   
    52    25    66 1   
    53    26    27 1   
    54    26    38 1   
    55    26    67 1   
    56    27    28 1   
    57    27    29 1   
    58    27    68 1   
    59    28    69 1   
    60    29    30 1   
    61    29    70 1   
    62    29    71 1   
    63    30    31 1   
    64    30    36 1   
    65    30    72 1   
    66    31    32 1   
    67    31    73 1   
    68    31    74 1   
    69    32    33 1   
    70    32    34 1   
    71    32    75 1   
    72    33    76 1   
    73    34    35 1   
    74    34    77 1   
    75    34    78 1   
    76    35    36 1   
    77    35    79 1   
    78    35    80 1   
    79    36    37 1   
    80    36    38 1   
    81    37    81 1   
    82    37    82 1   
    83    37    83 1   
    84    38    39 1   
    85    38    84 1   
    86    39    40 1   
    87    39    85 1   
    88    39    86 1   
    89    40    41 1   
    90    40    87 1   
    91    40    88 1   
    92    41    42 1   
    93    42    89 1   
    94    42    90 1   
    95    42    91 1   
    96    43    92 1   
    97    43    93 1   
    98    44    45 1   
    99    44    94 1   
   100    44    95 1   
   101    45    96 1   
   102    45    97 1   
@<TRIPOS>SUBSTRUCTURE
     1 7CF         1 TEMP              0 ****  ****    0 ROOT
