@<TRIPOS>MOLECULE
7CF
   97   102     1     0     0
SMALL
bcc


@<TRIPOS>ATOM
      1 C1          -2.8950     2.0750     1.3430 c3         1 7CF      -0.089100
      2 C2          -2.8720     0.5500     1.4160 c3         1 7CF      -0.049700
      3 C3          -1.5360     0.0030     0.8930 c3         1 7CF      -0.070400
      4 C4          -0.3190     0.5060     1.6610 c3         1 7CF      -0.154400
      5 C5           0.9530    -0.2420     1.3180 c          1 7CF       0.667100
      6 O1           0.9700    -1.4440     1.0900 o          1 7CF      -0.597100
      7 N1           2.0700     0.5090     1.3290 ns         1 7CF      -0.572900
      8 C6           3.3900    -0.0100     1.1010 c5         1 7CF       0.093700
      9 N2           5.2890     0.0780    -0.2470 n          1 7CF      -0.480800
     10 C8           6.0780    -0.1440    -1.3060 c          1 7CF       0.762100
     11 O2           5.6800    -0.3520    -2.4370 o          1 7CF      -0.591000
     12 O3           7.3740    -0.1100    -0.9700 os         1 7CF      -0.433900
     13 C9           8.3180    -0.2980    -2.0240 c3         1 7CF       0.205700
     14 C10          9.6760    -0.1400    -1.4070 ca         1 7CF      -0.081300
     15 C11         10.3500    -1.2480    -0.9080 ca         1 7CF      -0.098500
     16 C12         11.5900    -1.0780    -0.3150 ca         1 7CF       0.027900
     17 CL1         12.4290    -2.4560     0.3070 cl         1 7CF      -0.097400
     18 C13         12.1790     0.1720    -0.2040 ca         1 7CF      -0.106000
     19 C14         11.4880     1.2620    -0.7080 ca         1 7CF       0.027900
     20 CL2         12.2010     2.8330    -0.5880 cl         1 7CF      -0.097400
     21 C15         10.2460     1.1240    -1.3050 ca         1 7CF      -0.098500
     22 C16         -4.0320    -0.1140     0.6590 c5         1 7CF      -0.053700
     23 C17         -4.0010    -1.6570     0.7840 c5         1 7CF      -0.081400
     24 C18         -5.4590    -2.1480     0.7220 c5         1 7CF      -0.062400
     25 C19         -6.2580    -0.8990     0.3530 c5         1 7CF      -0.053700
     26 C20         -7.7730    -0.8560     0.5790 c6         1 7CF      -0.037700
     27 C21         -8.5060    -2.0200    -0.0900 c6         1 7CF       0.151100
     28 O4          -8.1240    -3.2290     0.5420 oh         1 7CF      -0.599800
     29 C22        -10.0210    -1.8650    -0.0070 c6         1 7CF      -0.107400
     30 C23        -10.5290    -0.5370    -0.5520 c6         1 7CF      -0.046700
     31 C24        -10.4190    -0.4840    -2.0800 c6         1 7CF      -0.072400
     32 C25        -10.9320     0.8280    -2.6430 c6         1 7CF       0.148100
     33 O5         -10.7870     0.7880    -4.0500 oh         1 7CF      -0.597800
     34 C26        -10.1920     1.9960    -2.0090 c6         1 7CF      -0.111400
     35 C27        -10.3480     1.9490    -0.4950 c6         1 7CF      -0.066400
     36 C28         -9.8380     0.6500     0.1540 c6         1 7CF      -0.032000
     37 C29        -10.2680     0.6970     1.6250 c3         1 7CF      -0.086100
     38 C30         -8.3000     0.4930     0.0250 c6         1 7CF      -0.046700
     39 C31         -7.5320     1.6780     0.6160 c6         1 7CF      -0.070400
     40 C32         -6.0170     1.5610     0.4730 c6         1 7CF      -0.064400
     41 C33         -5.4890     0.2470     1.0460 c5         1 7CF      -0.039000
     42 C34         -5.6500     0.2180     2.5680 c3         1 7CF      -0.078100
     43 C35          3.8430     0.0500    -0.3620 c5         1 7CF       0.096000
     44 C7           4.4750     0.7790     1.8280 c5         1 7CF      -0.112400
     45 C37          5.7510     0.3610     1.1110 c5         1 7CF       0.120000
     46 H1          -2.8860     2.4170     0.3040 hc         1 7CF       0.031367
     47 H2          -3.7780     2.4940     1.8220 hc         1 7CF       0.031367
     48 H3          -2.0330     2.5160     1.8430 hc         1 7CF       0.031367
     49 H4          -2.9490     0.2570     2.4710 hc         1 7CF       0.046700
     50 H5          -1.5440    -1.0860     0.9490 hc         1 7CF       0.056700
     51 H6          -1.4310     0.2580    -0.1680 hc         1 7CF       0.056700
     52 H7          -0.1720     1.5770     1.5120 hc         1 7CF       0.055700
     53 H8          -0.4850     0.3690     2.7360 hc         1 7CF       0.055700
     54 H9           1.9770     1.5050     1.4590 hn         1 7CF       0.311500
     55 H10          3.4140    -1.0490     1.4350 h1         1 7CF       0.090700
     56 H11          8.2080    -1.2910    -2.4660 h1         1 7CF       0.061200
     57 H12          8.1680     0.4440    -2.8100 h1         1 7CF       0.061200
     58 H13          9.9130    -2.2340    -0.9880 ha         1 7CF       0.154500
     59 H14         13.1490     0.2920     0.2580 ha         1 7CF       0.164000
     60 H15          9.7270     1.9900    -1.6940 ha         1 7CF       0.154500
     61 H16         -3.9200     0.1480    -0.4030 hc         1 7CF       0.044700
     62 H17         -3.3970    -2.1030    -0.0070 hc         1 7CF       0.042200
     63 H18         -3.5330    -1.9510     1.7280 hc         1 7CF       0.042200
     64 H19         -5.5900    -2.9480    -0.0050 hc         1 7CF       0.050200
     65 H20         -5.7780    -2.5520     1.6840 hc         1 7CF       0.050200
     66 H21         -6.1130    -0.7400    -0.7270 hc         1 7CF       0.038700
     67 H22         -7.9780    -0.9240     1.6550 hc         1 7CF       0.063700
     68 H23         -8.2010    -2.0430    -1.1490 h1         1 7CF       0.030700
     69 H24         -8.5930    -3.9470     0.1060 ho         1 7CF       0.400000
     70 H25        -10.4970    -2.6900    -0.5510 hc         1 7CF       0.046200
     71 H26        -10.3180    -1.9780     1.0400 hc         1 7CF       0.046200
     72 H27        -11.5990    -0.4710    -0.3130 hc         1 7CF       0.045700
     73 H28         -9.3870    -0.6290    -2.4130 hc         1 7CF       0.053200
     74 H29        -10.9950    -1.3160    -2.4980 hc         1 7CF       0.053200
     75 H30        -11.9970     0.9220    -2.3740 h1         1 7CF       0.025700
     76 H31        -11.1170     1.6190    -4.4080 ho         1 7CF       0.402000
     77 H32         -9.1360     1.9610    -2.2970 hc         1 7CF       0.046200
     78 H33        -10.5890     2.9430    -2.3900 hc         1 7CF       0.046200
     79 H34         -9.8710     2.8170    -0.0360 hc         1 7CF       0.041200
     80 H35        -11.4140     2.0460    -0.2550 hc         1 7CF       0.041200
     81 H36        -11.3570     0.6470     1.7010 hc         1 7CF       0.034700
     82 H37         -9.8640    -0.1190     2.2230 hc         1 7CF       0.034700
     83 H38         -9.9570     1.6290     2.1000 hc         1 7CF       0.034700
     84 H39         -8.0530     0.4850    -1.0460 hc         1 7CF       0.047700
     85 H40         -7.8430     2.5980     0.1160 hc         1 7CF       0.038700
     86 H41         -7.7940     1.8110     1.6690 hc         1 7CF       0.038700
     87 H42         -5.7470     1.6140    -0.5890 hc         1 7CF       0.039200
     88 H43         -5.5550     2.4280     0.9480 hc         1 7CF       0.039200
     89 H44         -6.6810     0.3740     2.8870 hc         1 7CF       0.032367
     90 H45         -5.3240    -0.7290     3.0030 hc         1 7CF       0.032367
     91 H46         -5.0550     1.0060     3.0340 hc         1 7CF       0.032367
     92 H47          3.4980    -0.8120    -0.9340 h1         1 7CF       0.065200
     93 H48          3.4600     0.9560    -0.8430 h1         1 7CF       0.065200
     94 H49          4.3060     1.8520     1.7010 hc         1 7CF       0.058200
     95 H50          4.5090     0.5670     2.8960 hc         1 7CF       0.058200
     96 H51          6.1870    -0.5310     1.5680 h1         1 7CF       0.056700
     97 H52          6.5030     1.1490     1.1250 h1         1 7CF       0.056700
@<TRIPOS>BOND
     1     1     2 1   
     2     1    46 1   
     3     1    47 1   
     4     1    48 1   
     5     2     3 1   
     6     2    22 1   
     7     2    49 1   
     8     3     4 1   
     9     3    50 1   
    10     3    51 1   
    11     4     5 1   
    12     4    52 1   
    13     4    53 1   
    14     5     6 2   
    15     5     7 1   
    16     7     8 1   
    17     7    54 1   
    18     8    43 1   
    19     8    44 1   
    20     8    55 1   
    21     9    10 1   
    22     9    43 1   
    23     9    45 1   
    24    10    11 2   
    25    10    12 1   
    26    12    13 1   
    27    13    14 1   
    28    13    56 1   
    29    13    57 1   
    30    14    15 ar  
    31    14    21 ar  
    32    15    16 ar  
    33    15    58 1   
    34    16    17 1   
    35    16    18 ar  
    36    18    19 ar  
    37    18    59 1   
    38    19    20 1   
    39    19    21 ar  
    40    21    60 1   
    41    22    23 1   
    42    22    41 1   
    43    22    61 1   
    44    23    24 1   
    45    23    62 1   
    46    23    63 1   
    47    24    25 1   
    48    24    64 1   
    49    24    65 1   
    50    25    26 1   
    51    25    41 1   
    52    25    66 1   
    53    26    27 1   
    54    26    38 1   
    55    26    67 1   
    56    27    28 1   
    57    27    29 1   
    58    27    68 1   
    59    28    69 1   
    60    29    30 1   
    61    29    70 1   
    62    29    71 1   
    63    30    31 1   
    64    30    36 1   
    65    30    72 1   
    66    31    32 1   
    67    31    73 1   
    68    31    74 1   
    69    32    33 1   
    70    32    34 1   
    71    32    75 1   
    72    33    76 1   
    73    34    35 1   
    74    34    77 1   
    75    34    78 1   
    76    35    36 1   
    77    35    79 1   
    78    35    80 1   
    79    36    37 1   
    80    36    38 1   
    81    37    81 1   
    82    37    82 1   
    83    37    83 1   
    84    38    39 1   
    85    38    84 1   
    86    39    40 1   
    87    39    85 1   
    88    39    86 1   
    89    40    41 1   
    90    40    87 1   
    91    40    88 1   
    92    41    42 1   
    93    42    89 1   
    94    42    90 1   
    95    42    91 1   
    96    43    92 1   
    97    43    93 1   
    98    44    45 1   
    99    44    94 1   
   100    44    95 1   
   101    45    96 1   
   102    45    97 1   
@<TRIPOS>SUBSTRUCTURE
     1 7CF         1 TEMP              0 ****  ****    0 ROOT
