@<TRIPOS>MOLECULE
7CG
   38    40     1     0     0
SMALL
No Charge or Current Charge


@<TRIPOS>ATOM
      1 C10          2.7190    -0.4850    -0.9410 ca         1 7CG       0.014000
      2 C13         -2.4000     0.6440    -0.5110 ca         1 7CG      -0.184000
      3 C17         -6.5370     0.3520     1.1640 c5         1 7CG      -0.091400
      4 C21         -2.8900    -1.6550    -1.0880 ca         1 7CG      -0.116000
      5 C22         -1.7070    -1.7130    -1.8430 ca         1 7CG      -0.081000
      6 O01          1.5680     3.1540    -0.9260 o          1 7CG      -0.518500
      7 S02          1.2720     1.8210    -1.4550 sy         1 7CG       1.146600
      8 C03          1.9610     0.5600    -0.3650 ca         1 7CG      -0.263500
      9 C04          1.7510     0.5700     1.0370 ca         1 7CG       0.061100
     10 Br1          0.7100     1.9170     1.9310 br         1 7CG      -0.067100
     11 C06          2.3010    -0.4500     1.8350 ca         1 7CG      -0.110000
     12 C07          3.0550    -1.4820     1.2550 ca         1 7CG      -0.037000
     13 C08          3.2610    -1.4980    -0.1330 ca         1 7CG      -0.030900
     14 Br2          4.2830    -2.9060    -0.9280 br         1 7CG      -0.065100
     15 N11         -0.3950     1.7210    -1.2680 nu         1 7CG      -0.876100
     16 C12         -1.2100     0.5930    -1.2540 ca         1 7CG       0.248000
     17 C14         -3.2880    -0.4540    -0.4590 ca         1 7CG      -0.003000
     18 N15         -4.4080    -0.3880     0.4540 n          1 7CG      -0.234400
     19 C16         -5.1710     0.8710     0.6250 c5         1 7CG       0.094000
     20 C18         -6.0540    -0.8280     2.0410 c5         1 7CG      -0.168400
     21 C19         -4.9550    -1.4600     1.1910 c          1 7CG       0.568000
     22 O20         -4.7130    -2.6500     1.0460 o          1 7CG      -0.521000
     23 C23         -0.8730    -0.5890    -1.9350 ca         1 7CG      -0.101000
     24 O24          1.5120     1.4760    -2.8590 o          1 7CG      -0.518500
     25 H101         2.8930    -0.5210    -2.0150 ha         1 7CG       0.166000
     26 H131        -2.6320     1.5520     0.0380 ha         1 7CG       0.114000
     27 H171        -7.0920     1.1130     1.7250 hc         1 7CG       0.061700
     28 H172        -7.1790     0.0030     0.3460 hc         1 7CG       0.061700
     29 H211        -3.5110    -2.5440    -1.0440 ha         1 7CG       0.145000
     30 H221        -1.4340    -2.6340    -2.3540 ha         1 7CG       0.125000
     31 H061         2.1370    -0.4430     2.9100 ha         1 7CG       0.134000
     32 H071         3.4760    -2.2680     1.8790 ha         1 7CG       0.137000
     33 H161        -5.2820     1.4210    -0.3190 h1         1 7CG       0.052200
     34 H162        -4.6750     1.5250     1.3550 h1         1 7CG       0.052200
     35 H182        -5.5870    -0.4210     2.9460 hc         1 7CG       0.081200
     36 H181        -6.8190    -1.5580     2.3240 hc         1 7CG       0.081200
     37 H231         0.0340    -0.6530    -2.5270 ha         1 7CG       0.146000
     38 H111        -0.6400     2.4720    -0.6370 hn         1 7CG       0.498000
@<TRIPOS>BOND
     1     1     8 ar  
     2     1    13 ar  
     3     1    25 1   
     4     2    16 ar  
     5     2    17 ar  
     6     2    26 1   
     7     3    19 1   
     8     3    20 1   
     9     3    27 1   
    10     3    28 1   
    11     4     5 ar  
    12     4    17 ar  
    13     4    29 1   
    14     5    23 ar  
    15     5    30 1   
    16     6     7 2   
    17     7     8 1   
    18     7    15 1   
    19     7    24 2   
    20     8     9 ar  
    21     9    10 1   
    22     9    11 ar  
    23    11    12 ar  
    24    11    31 1   
    25    12    13 ar  
    26    12    32 1   
    27    13    14 1   
    28    15    16 1   
    29    15    38 1   
    30    16    23 ar  
    31    17    18 1   
    32    18    19 1   
    33    18    21 1   
    34    19    33 1   
    35    19    34 1   
    36    20    21 1   
    37    20    35 1   
    38    20    36 1   
    39    21    22 2   
    40    23    37 1   
@<TRIPOS>SUBSTRUCTURE
     1 7CG         1 TEMP              0 ****  ****    0 ROOT
