@<TRIPOS>MOLECULE
7CG
   38    40     1     0     0
SMALL
abcg2


@<TRIPOS>ATOM
      1 C10          1.6310    -0.7350    -0.1330 ca         1 7CG       0.014000
      2 C13         -1.9890     0.5680    -0.9120 ca         1 7CG      -0.184000
      3 C17         -5.0710    -0.0440     2.0640 c5         1 7CG      -0.091400
      4 C21         -2.9650    -1.3580    -1.9650 ca         1 7CG      -0.116000
      5 C22         -2.1310    -1.1630    -3.0540 ca         1 7CG      -0.081000
      6 O01          2.0370     2.7440    -1.5330 o          1 7CG      -0.518500
      7 S02          1.3490     1.4790    -1.6790 sy         1 7CG       1.146600
      8 C03          1.3150     0.6180    -0.1090 ca         1 7CG      -0.263500
      9 C04          0.9550     1.2290     1.0910 ca         1 7CG       0.061100
     10 BR1          0.4650     3.0400     1.2080 br         1 7CG      -0.067100
     11 C06          0.9220     0.4820     2.2590 ca         1 7CG      -0.110000
     12 C07          1.2410    -0.8660     2.2400 ca         1 7CG      -0.037000
     13 C08          1.5930    -1.4660     1.0420 ca         1 7CG      -0.030900
     14 BR2          2.0180    -3.2970     1.0040 br         1 7CG      -0.065100
     15 N11         -0.2340     1.8270    -2.0220 nu         1 7CG      -0.876100
     16 C12         -1.1640     0.7500    -2.0150 ca         1 7CG       0.248000
     17 C14         -2.8960    -0.4900    -0.8720 ca         1 7CG      -0.003000
     18 N15         -3.7130    -0.6390     0.2550 n          1 7CG      -0.234400
     19 C16         -3.9350     0.4650     1.1850 c5         1 7CG       0.094000
     20 C18         -4.8610    -1.5500     2.0650 c5         1 7CG      -0.168400
     21 C19         -4.1820    -1.8300     0.7460 c          1 7CG       0.568000
     22 O20         -4.0450    -2.9180     0.2270 o          1 7CG      -0.521000
     23 C23         -1.2250    -0.1150    -3.0970 ca         1 7CG      -0.101000
     24 O24          1.8060     0.5170    -2.6610 o          1 7CG      -0.518500
     25 H101         1.9000    -1.2070    -1.0670 ha         1 7CG       0.166000
     26 H131        -1.9120     1.2600    -0.0850 ha         1 7CG       0.114000
     27 H171        -5.0430     0.3970     3.0580 hc         1 7CG       0.061700
     28 H172        -6.0310     0.2050     1.6120 hc         1 7CG       0.061700
     29 H211        -3.6710    -2.1720    -1.9850 ha         1 7CG       0.145000
     30 H221        -2.2040    -1.8380    -3.8960 ha         1 7CG       0.125000
     31 H061         0.6440     0.9420     3.1970 ha         1 7CG       0.134000
     32 H071         1.2080    -1.4290     3.1620 ha         1 7CG       0.137000
     33 H161        -4.1940     1.3750     0.6450 h1         1 7CG       0.052200
     34 H162        -3.0340     0.6620     1.7750 h1         1 7CG       0.052200
     35 H182        -4.1830    -1.8650     2.8640 hc         1 7CG       0.081200
     36 H181        -5.7740    -2.1350     2.1650 hc         1 7CG       0.081200
     37 H231        -0.5950     0.0400    -3.9610 ha         1 7CG       0.146000
     38 H111        -0.5510     2.6820    -1.5760 hn         1 7CG       0.498000
@<TRIPOS>BOND
     1     1     8 ar  
     2     1    13 ar  
     3     1    25 1   
     4     2    16 ar  
     5     2    17 ar  
     6     2    26 1   
     7     3    19 1   
     8     3    20 1   
     9     3    27 1   
    10     3    28 1   
    11     4     5 ar  
    12     4    17 ar  
    13     4    29 1   
    14     5    23 ar  
    15     5    30 1   
    16     6     7 2   
    17     7     8 1   
    18     7    15 1   
    19     7    24 2   
    20     8     9 ar  
    21     9    10 1   
    22     9    11 ar  
    23    11    12 ar  
    24    11    31 1   
    25    12    13 ar  
    26    12    32 1   
    27    13    14 1   
    28    15    16 1   
    29    15    38 1   
    30    16    23 ar  
    31    17    18 1   
    32    18    19 1   
    33    18    21 1   
    34    19    33 1   
    35    19    34 1   
    36    20    21 1   
    37    20    35 1   
    38    20    36 1   
    39    21    22 2   
    40    23    37 1   
@<TRIPOS>SUBSTRUCTURE
     1 7CG         1 TEMP              0 ****  ****    0 ROOT
