@<TRIPOS>MOLECULE
7CH
   35    38     1     0     0
SMALL
No Charge or Current Charge


@<TRIPOS>ATOM
      1 O2P         -5.1100    -0.4370     1.5450 o          1 7CH      -0.516000
      2 P           -3.8590     0.1310     0.9790 p5         1 7CH       1.355200
      3 O1P         -3.1780     1.2360     1.8960 oh         1 7CH      -0.766400
      4 O3          -2.6560    -0.9110     0.6660 os         1 7CH      -0.520400
      5 C3          -1.4690    -0.2940     0.1090 c5         1 7CH       0.158300
      6 C4          -1.8330     0.3290    -1.2440 c5         1 7CH       0.068300
      7 C5          -2.8690     1.4590    -1.0980 c6         1 7CH       0.215600
      8 O5          -4.0360     0.9340    -0.4160 os         1 7CH      -0.604400
      9 C2          -0.3880    -1.3060    -0.3710 c5         1 7CH       0.147300
     10 O2          -0.9240    -2.4130    -1.1370 oh         1 7CH      -0.687000
     11 C1           0.4240    -0.2850    -1.2750 c5         1 7CH       0.270300
     12 O4          -0.5380     0.7210    -1.7410 os         1 7CH      -0.431000
     13 N9           1.5370     0.3850    -0.5870 na         1 7CH      -0.207400
     14 C9           2.7510    -0.1930    -0.2290 ca         1 7CH       0.149500
     15 C10          3.5220     0.7340     0.4250 ca         1 7CH      -0.256800
     16 C7           2.7890     1.9620     0.4980 cc         1 7CH      -0.202200
     17 C8           1.5760     1.7300    -0.1270 cd         1 7CH      -0.164100
     18 N3           3.2060    -1.4460    -0.4320 nb         1 7CH      -0.249000
     19 C11          4.4470    -1.7160     0.0410 ca         1 7CH       0.186900
     20 N1           5.2700    -0.8590     0.6930 nb         1 7CH      -0.298000
     21 C6           4.7940     0.3790     0.8850 ca         1 7CH       0.437900
     22 N6           5.6120     1.2460     1.5310 nv         1 7CH      -1.069900
     23 H1          -4.0060     1.5840     2.2740 ho         1 7CH       0.490000
     24 H2          -1.0470     0.4390     0.8120 h1         1 7CH       0.069700
     25 H3          -2.2590    -0.4200    -1.9260 h1         1 7CH       0.101700
     26 H4          -2.4490     2.2980    -0.5230 h1         1 7CH       0.069700
     27 H5          -3.1650     1.8320    -2.0890 h1         1 7CH       0.069700
     28 H6           0.2180    -1.6660     0.4740 h1         1 7CH       0.084700
     29 H7          -0.2790    -3.1560    -1.0740 ho         1 7CH       0.521000
     30 H8           0.8720    -0.8060    -2.1300 h2         1 7CH       0.110700
     31 H9           3.0990     2.9030     0.9520 ha         1 7CH       0.204000
     32 H10          0.7440     2.4140    -0.2790 h4         1 7CH       0.220000
     33 H11          4.8220    -2.7250    -0.1200 h5         1 7CH       0.046100
     34 H12          6.5930     0.9930     1.6210 hn         1 7CH       0.497500
     35 H13          5.4050     2.2380     1.4650 hn         1 7CH       0.497500
@<TRIPOS>BOND
     1     1     2 2   
     2     2     3 1   
     3     2     4 1   
     4     2     8 1   
     5     3    23 1   
     6     4     5 1   
     7     5     6 1   
     8     5     9 1   
     9     5    24 1   
    10     6     7 1   
    11     6    12 1   
    12     6    25 1   
    13     7     8 1   
    14     7    26 1   
    15     7    27 1   
    16     9    10 1   
    17     9    11 1   
    18     9    28 1   
    19    10    29 1   
    20    11    12 1   
    21    11    13 1   
    22    11    30 1   
    23    13    14 1   
    24    13    17 1   
    25    14    15 ar  
    26    14    18 ar  
    27    15    16 1   
    28    15    21 ar  
    29    16    17 2   
    30    16    31 1   
    31    17    32 1   
    32    18    19 ar  
    33    19    20 ar  
    34    19    33 1   
    35    20    21 ar  
    36    21    22 1   
    37    22    34 1   
    38    22    35 1   
@<TRIPOS>SUBSTRUCTURE
     1 7CH         1 TEMP              0 ****  ****    0 ROOT
