@<TRIPOS>MOLECULE
7CH
   35    38     1     0     0
SMALL
abcg2


@<TRIPOS>ATOM
      1 O2P         -5.2020    -0.5580     0.9950 o          1 7CH      -0.516000
      2 P           -3.9170     0.1300     0.8120 p5         1 7CH       1.355200
      3 O1P         -3.4250     1.0940     1.9830 oh         1 7CH      -0.766400
      4 O3          -2.6630    -0.8700     0.7090 os         1 7CH      -0.520400
      5 C3          -1.4930    -0.3010     0.1490 c5         1 7CH       0.158300
      6 C4          -1.7590     0.2760    -1.2310 c5         1 7CH       0.068300
      7 C5          -2.6660     1.4830    -1.1200 c6         1 7CH       0.215600
      8 O5          -3.8890     1.0010    -0.5340 os         1 7CH      -0.604400
      9 C2          -0.3520    -1.2500    -0.1420 c5         1 7CH       0.147300
     10 O2          -0.8650    -2.3950    -0.7530 oh         1 7CH      -0.687000
     11 C1           0.4450    -0.3620    -1.1440 c5         1 7CH       0.270300
     12 O4          -0.4630     0.5600    -1.7080 os         1 7CH      -0.431000
     13 N9           1.5130     0.3770    -0.5120 na         1 7CH      -0.207400
     14 C9           2.7370    -0.1560    -0.2590 ca         1 7CH       0.149500
     15 C10          3.4980     0.8010     0.4140 ca         1 7CH      -0.256800
     16 C7           2.6760     1.9560     0.5730 cc         1 7CH      -0.202200
     17 C8           1.4770     1.6570     0.0010 cd         1 7CH      -0.164100
     18 N3           3.1300    -1.3880    -0.5890 nb         1 7CH      -0.249000
     19 C11          4.3710    -1.6370    -0.2190 ca         1 7CH       0.186900
     20 N1           5.2170    -0.8290     0.4170 nb         1 7CH      -0.298000
     21 C6           4.8070     0.3990     0.7480 ca         1 7CH       0.437900
     22 N6           5.6570     1.1980     1.4060 nv         1 7CH      -1.069900
     23 H1          -4.0480     1.7910     2.2280 ho         1 7CH       0.490000
     24 H2          -1.1110     0.4900     0.8070 h1         1 7CH       0.069700
     25 H3          -2.2530    -0.4700    -1.8670 h1         1 7CH       0.101700
     26 H4          -2.2230     2.2670    -0.4990 h1         1 7CH       0.069700
     27 H5          -2.9300     1.9070    -2.0870 h1         1 7CH       0.069700
     28 H6           0.2530    -1.4830     0.7410 h1         1 7CH       0.084700
     29 H7          -0.1450    -3.0150    -0.9060 ho         1 7CH       0.521000
     30 H8           0.8930    -0.9880    -1.9210 h2         1 7CH       0.110700
     31 H9           2.9310     2.8950     1.0390 ha         1 7CH       0.204000
     32 H10          0.6020     2.2780    -0.0980 h4         1 7CH       0.220000
     33 H11          4.7560    -2.6220    -0.4590 h5         1 7CH       0.046100
     34 H12          6.6130     0.9090     1.5310 hn         1 7CH       0.497500
     35 H13          5.4430     2.1660     1.5640 hn         1 7CH       0.497500
@<TRIPOS>BOND
     1     1     2 2   
     2     2     3 1   
     3     2     4 1   
     4     2     8 1   
     5     3    23 1   
     6     4     5 1   
     7     5     6 1   
     8     5     9 1   
     9     5    24 1   
    10     6     7 1   
    11     6    12 1   
    12     6    25 1   
    13     7     8 1   
    14     7    26 1   
    15     7    27 1   
    16     9    10 1   
    17     9    11 1   
    18     9    28 1   
    19    10    29 1   
    20    11    12 1   
    21    11    13 1   
    22    11    30 1   
    23    13    14 1   
    24    13    17 1   
    25    14    15 ar  
    26    14    18 ar  
    27    15    16 1   
    28    15    21 ar  
    29    16    17 2   
    30    16    31 1   
    31    17    32 1   
    32    18    19 ar  
    33    19    20 ar  
    34    19    33 1   
    35    20    21 ar  
    36    21    22 1   
    37    22    34 1   
    38    22    35 1   
@<TRIPOS>SUBSTRUCTURE
     1 7CH         1 TEMP              0 ****  ****    0 ROOT
