@<TRIPOS>MOLECULE
7CI
   33    35     1     0     0
SMALL
No Charge or Current Charge


@<TRIPOS>ATOM
      1 C1           1.2610     0.8430     0.1350 c5         1 7CI       0.307300
      2 N1          -0.0420     0.1630     0.1290 na         1 7CI       0.026000
      3 O1           2.0790     0.3830    -0.9770 os         1 7CI      -0.421000
      4 C2          -1.2220     0.7190    -0.3570 cc         1 7CI       0.125400
      5 N2          -1.4120     1.9500    -0.9460 nc         1 7CI      -0.610100
      6 O2           1.9100     1.7090     2.4150 oh         1 7CI      -0.668000
      7 C3          -2.6710     2.2020    -1.3140 cd         1 7CI       0.507800
      8 N3          -3.7130     1.3270    -1.1330 ns         1 7CI      -0.428400
      9 O3           3.8460     2.2590     0.5620 oh         1 7CI      -0.684000
     10 C4          -3.6000     0.1010    -0.5570 c          1 7CI       0.602600
     11 N4          -2.8790    -3.4970     1.2400 n1         1 7CI      -0.458000
     12 C5          -2.2170    -0.1860    -0.1460 cd         1 7CI      -0.237600
     13 O5          -4.5530    -0.6470    -0.4100 o          1 7CI      -0.521000
     14 C6          -1.6670    -1.3300     0.4900 cd         1 7CI      -0.042000
     15 C7          -0.3210    -1.1020     0.6660 cc         1 7CI      -0.123000
     16 C8          -2.3480    -2.5140     0.8960 ch         1 7CI       0.361000
     17 C9           2.1450     0.7000     1.4250 c5         1 7CI       0.137300
     18 C10          3.5650     0.8690     0.8170 c5         1 7CI       0.100300
     19 C11          3.3990     0.0240    -0.4890 c5         1 7CI       0.127300
     20 C12          3.4910    -1.5180    -0.2670 c3         1 7CI       0.142600
     21 O4           3.5330    -2.2210    -1.5200 oh         1 7CI      -0.700000
     22 H1           1.0380     1.9060    -0.0190 h2         1 7CI       0.130700
     23 HO2          2.5300     2.4380     2.1590 ho         1 7CI       0.513000
     24 H3          -2.9660     3.1290    -1.7900 h5         1 7CI       0.051800
     25 HN3         -4.6390     1.5870    -1.4380 hn         1 7CI       0.330500
     26 HO3          4.7520     2.3160     0.1730 ho         1 7CI       0.508000
     27 H7           0.4370    -1.7320     1.1130 h4         1 7CI       0.173000
     28 H9           2.0330    -0.2960     1.8730 h1         1 7CI       0.047700
     29 H10          4.3330     0.4390     1.4760 h1         1 7CI       0.053700
     30 H11          4.1510     0.3030    -1.2400 h1         1 7CI       0.092700
     31 H122         4.4020    -1.7320     0.3080 h1         1 7CI       0.022700
     32 H121         2.6370    -1.8600     0.3320 h1         1 7CI       0.022700
     33 HO4          3.5760    -3.1850    -1.3130 ho         1 7CI       0.510000
@<TRIPOS>BOND
     1     1     2 1   
     2     1     3 1   
     3     1    17 1   
     4     1    22 1   
     5     2     4 1   
     6     2    15 1   
     7     3    19 1   
     8     4     5 1   
     9     4    12 2   
    10     5     7 2   
    11     6    17 1   
    12     6    23 1   
    13     7     8 1   
    14     7    24 1   
    15     8    10 1   
    16     8    25 1   
    17     9    18 1   
    18     9    26 1   
    19    10    12 1   
    20    10    13 2   
    21    11    16 3   
    22    12    14 1   
    23    14    15 2   
    24    14    16 1   
    25    15    27 1   
    26    17    18 1   
    27    17    28 1   
    28    18    19 1   
    29    18    29 1   
    30    19    20 1   
    31    19    30 1   
    32    20    21 1   
    33    20    31 1   
    34    20    32 1   
    35    21    33 1   
@<TRIPOS>SUBSTRUCTURE
     1 7CI         1 TEMP              0 ****  ****    0 ROOT
