@<TRIPOS>MOLECULE
7CI
   33    35     1     0     0
SMALL
bcc


@<TRIPOS>ATOM
      1 C1           1.3230     0.7630    -0.4630 c5         1 7CI       0.254800
      2 N1           0.0410     0.0810    -0.3500 na         1 7CI      -0.046100
      3 O1           2.2190    -0.0780    -1.1150 os         1 7CI      -0.374600
      4 C2          -1.1750     0.6940    -0.3510 cc         1 7CI       0.176100
      5 N2          -1.3750     2.0170    -0.5240 nc         1 7CI      -0.610100
      6 O2           1.4770     2.3190     1.3520 oh         1 7CI      -0.545800
      7 C3          -2.6220     2.3540    -0.5000 cd         1 7CI       0.507800
      8 N3          -3.6500     1.4950    -0.3140 ns         1 7CI      -0.495400
      9 O3           3.8150     2.1970    -0.0610 oh         1 7CI      -0.561800
     10 C4          -3.5250     0.1180    -0.1300 c          1 7CI       0.745100
     11 N4          -2.5180    -3.8350     0.2880 n1         1 7CI      -0.368800
     12 C5          -2.1500    -0.2700    -0.1620 cd         1 7CI      -0.237600
     13 O5          -4.4960    -0.6000     0.0300 o          1 7CI      -0.596500
     14 C6          -1.4750    -1.5170    -0.0460 cd         1 7CI      -0.042000
     15 C7          -0.1310    -1.2560    -0.1700 cc         1 7CI      -0.090300
     16 C8          -2.0520    -2.7910     0.1370 ch         1 7CI       0.271800
     17 C9           1.9470     1.0930     0.8980 c5         1 7CI       0.114100
     18 C10          3.4400     1.0040     0.5740 c5         1 7CI       0.077100
     19 C11          3.4410    -0.1920    -0.3760 c5         1 7CI       0.104100
     20 C12          3.5300    -1.5120     0.3680 c3         1 7CI       0.119400
     21 O4           3.2980    -2.5580    -0.5400 oh         1 7CI      -0.577800
     22 H1           1.1370     1.6780    -1.0340 h2         1 7CI       0.130700
     23 HO2          1.7310     2.4250     2.2740 ho         1 7CI       0.414000
     24 H3          -2.9030     3.3900    -0.6350 h5         1 7CI       0.051800
     25 HN3         -4.5870     1.8760    -0.3130 hn         1 7CI       0.330500
     26 HO3          4.7440     2.1320    -0.3050 ho         1 7CI       0.409000
     27 H7           0.6960    -1.9470    -0.1730 h4         1 7CI       0.191000
     28 H9           1.7080     0.2840     1.6020 h1         1 7CI       0.047700
     29 H10          4.0440     0.8080     1.4690 h1         1 7CI       0.053700
     30 H11          4.2610    -0.1340    -1.0970 h1         1 7CI       0.092700
     31 H122         4.5300    -1.5670     0.8170 h1         1 7CI       0.022700
     32 H121         2.8130    -1.5370     1.2000 h1         1 7CI       0.022700
     33 HO4          3.3330    -3.3880    -0.0560 ho         1 7CI       0.411000
@<TRIPOS>BOND
     1     1     2 1   
     2     1     3 1   
     3     1    17 1   
     4     1    22 1   
     5     2     4 1   
     6     2    15 1   
     7     3    19 1   
     8     4     5 1   
     9     4    12 2   
    10     5     7 2   
    11     6    17 1   
    12     6    23 1   
    13     7     8 1   
    14     7    24 1   
    15     8    10 1   
    16     8    25 1   
    17     9    18 1   
    18     9    26 1   
    19    10    12 1   
    20    10    13 2   
    21    11    16 3   
    22    12    14 1   
    23    14    15 2   
    24    14    16 1   
    25    15    27 1   
    26    17    18 1   
    27    17    28 1   
    28    18    19 1   
    29    18    29 1   
    30    19    20 1   
    31    19    30 1   
    32    20    21 1   
    33    20    31 1   
    34    20    32 1   
    35    21    33 1   
@<TRIPOS>SUBSTRUCTURE
     1 7CI         1 TEMP              0 ****  ****    0 ROOT
