@<TRIPOS>MOLECULE
7CJ
   38    40     1     0     0
SMALL
abcg2


@<TRIPOS>ATOM
      1 C10         -3.9910    -2.0390    -0.9180 c5         1 7CJ      -0.167400
      2 C13         -2.1060     0.9810     2.0930 ca         1 7CJ      -0.154000
      3 C15         -0.0770     2.2730     1.9210 ca         1 7CJ      -0.093000
      4 C17          2.5040    -0.5510    -1.8460 ca         1 7CJ      -0.036000
      5 C20          1.2820    -2.3310    -0.1270 ca         1 7CJ       0.163000
      6 C22          1.6420    -1.0910     0.3580 ca         1 7CJ      -0.052000
      7 S02          2.6020     1.4350     0.0330 sy         1 7CJ       1.141600
      8 C04          0.0560     1.8440     0.6080 ca         1 7CJ       0.246000
      9 C05         -0.8770     0.9930     0.0290 ca         1 7CJ      -0.156000
     10 C06         -1.9720     0.5480     0.7710 ca         1 7CJ      -0.005000
     11 N07         -2.9360    -0.3080     0.2280 n          1 7CJ      -0.231400
     12 C08         -4.2460    -0.4630     0.8540 c5         1 7CJ       0.094000
     13 C09         -5.0490    -1.2190    -0.1980 c5         1 7CJ      -0.092400
     14 C11         -2.7280    -1.2230    -0.7710 c          1 7CJ       0.570000
     15 O12         -1.7020    -1.3700    -1.4040 o          1 7CJ      -0.533000
     16 C14         -1.1680     1.8330     2.6530 ca         1 7CJ      -0.081000
     17 C16          2.2490    -0.2090    -0.5260 ca         1 7CJ      -0.284500
     18 C18          2.1440    -1.8160    -2.2870 ca         1 7CJ      -0.101000
     19 C19          1.5260    -2.7150    -1.4310 ca         1 7CJ      -0.086000
     20 O23          2.8770     1.3790     1.4560 o          1 7CJ      -0.527500
     21 H102        -3.8250    -3.0050    -0.4310 hc         1 7CJ       0.081700
     22 H101        -4.2080    -2.2360    -1.9670 hc         1 7CJ       0.081700
     23 H131        -2.9390     0.6510     2.7000 ha         1 7CJ       0.116000
     24 H151         0.6490     2.9460     2.3550 ha         1 7CJ       0.144000
     25 H171         2.9810     0.1440    -2.5230 ha         1 7CJ       0.138000
     26 H221         1.4470    -0.8290     1.3890 ha         1 7CJ       0.152000
     27 H051        -0.7350     0.6800    -0.9930 ha         1 7CJ       0.142000
     28 H081        -4.1660    -1.0380     1.7810 h1         1 7CJ       0.054700
     29 H082        -4.6730     0.5100     1.0930 h1         1 7CJ       0.054700
     30 H091        -5.5170    -0.5150    -0.8870 hc         1 7CJ       0.061700
     31 H092        -5.8360    -1.8220     0.2510 hc         1 7CJ       0.061700
     32 H141        -1.2960     2.1590     3.6760 ha         1 7CJ       0.122000
     33 H181         2.3460    -2.1040    -3.3090 ha         1 7CJ       0.122000
     34 H191         1.2350    -3.6990    -1.7720 ha         1 7CJ       0.134000
     35 H031         0.9780     2.4460    -1.1350 hn         1 7CJ       0.487000
     36 N03          1.1780     2.2770    -0.1530 nu         1 7CJ      -0.864100
     37 F21          0.6820    -3.1930     0.7030 f          1 7CJ      -0.177000
     38 O01          3.5500     2.0460    -0.8800 o          1 7CJ      -0.527500
@<TRIPOS>BOND
     1     1    13 1   
     2     1    14 1   
     3     1    21 1   
     4     1    22 1   
     5     2    10 ar  
     6     2    16 ar  
     7     2    23 1   
     8     3     8 ar  
     9     3    16 ar  
    10     3    24 1   
    11     4    17 ar  
    12     4    18 ar  
    13     4    25 1   
    14     5     6 ar  
    15     5    19 ar  
    16     5    37 1   
    17     6    17 ar  
    18     6    26 1   
    19     7    17 1   
    20     7    20 2   
    21     7    36 1   
    22     7    38 2   
    23     8     9 ar  
    24     8    36 1   
    25     9    10 ar  
    26     9    27 1   
    27    10    11 1   
    28    11    12 1   
    29    11    14 1   
    30    12    13 1   
    31    12    28 1   
    32    12    29 1   
    33    13    30 1   
    34    13    31 1   
    35    14    15 2   
    36    16    32 1   
    37    18    19 ar  
    38    18    33 1   
    39    19    34 1   
    40    35    36 1   
@<TRIPOS>SUBSTRUCTURE
     1 7CJ         1 TEMP              0 ****  ****    0 ROOT
