@<TRIPOS>MOLECULE
7CJ
   38    40     1     0     0
SMALL
No Charge or Current Charge


@<TRIPOS>ATOM
      1 C10         -5.4350    -0.9990    -1.4090 c5         1 7CJ      -0.167400
      2 C13         -2.1510    -0.1380     1.8290 ca         1 7CJ      -0.154000
      3 C15          0.0840     0.7880     1.5970 ca         1 7CJ      -0.093000
      4 C17          2.7410    -0.8530    -1.4440 ca         1 7CJ      -0.036000
      5 C20          3.6840    -1.8700     1.0010 ca         1 7CJ       0.163000
      6 C22          3.3500    -0.5090     0.8950 ca         1 7CJ      -0.052000
      7 S02          2.4230     1.7430    -0.4830 sy         1 7CJ       1.141600
      8 C04         -0.1960     1.1380     0.2640 ca         1 7CJ       0.246000
      9 C05         -1.4670     0.8590    -0.2670 ca         1 7CJ      -0.156000
     10 C06         -2.4830     0.2700     0.5200 ca         1 7CJ      -0.005000
     11 N07         -3.7390    -0.1770    -0.0410 n          1 7CJ      -0.231400
     12 C08         -4.9670    -0.2120     0.7900 c5         1 7CJ       0.094000
     13 C09         -6.0900    -0.1550    -0.2890 c5         1 7CJ      -0.092400
     14 C11         -3.9810    -0.5350    -1.3840 c          1 7CJ       0.570000
     15 O12         -3.2390    -0.3490    -2.3400 o          1 7CJ      -0.533000
     16 C14         -0.8870     0.1400     2.3730 ca         1 7CJ      -0.081000
     17 C16          2.8750     0.0070    -0.3320 ca         1 7CJ      -0.284500
     18 C18          3.0790    -2.2140    -1.3280 ca         1 7CJ      -0.101000
     19 C19          3.5500    -2.7230    -0.1050 ca         1 7CJ      -0.086000
     20 O23          2.7480     2.4750     0.7440 o          1 7CJ      -0.527500
     21 H102        -5.4570    -2.0530    -1.1090 hc         1 7CJ       0.081700
     22 H101        -5.8770    -0.8960    -2.4060 hc         1 7CJ       0.081700
     23 H131        -2.8740    -0.6740     2.4400 ha         1 7CJ       0.116000
     24 H151         1.0510     1.0030     2.0390 ha         1 7CJ       0.144000
     25 H171         2.3740    -0.4720    -2.3960 ha         1 7CJ       0.138000
     26 H221         3.4640     0.1320     1.7660 ha         1 7CJ       0.152000
     27 H051        -1.6660     1.1470    -1.2920 ha         1 7CJ       0.142000
     28 H081        -5.0140    -1.1450     1.3680 h1         1 7CJ       0.054700
     29 H082        -5.0220     0.6350     1.4860 h1         1 7CJ       0.054700
     30 H091        -6.2690     0.8750    -0.6200 hc         1 7CJ       0.061700
     31 H092        -7.0430    -0.5650     0.0640 hc         1 7CJ       0.061700
     32 H141        -0.6570    -0.1560     3.3950 ha         1 7CJ       0.122000
     33 H181         2.9730    -2.8740    -2.1870 ha         1 7CJ       0.122000
     34 H191         3.8110    -3.7750    -0.0130 ha         1 7CJ       0.134000
     35 H031         0.5090     1.8700    -1.5370 hn         1 7CJ       0.487000
     36 N03          0.7440     1.7550    -0.5610 nu         1 7CJ      -0.864100
     37 F21          4.1370    -2.3600     2.1760 f          1 7CJ      -0.177000
     38 O01          2.7970     2.2340    -1.8110 o          1 7CJ      -0.527500
@<TRIPOS>BOND
     1     1    13 1   
     2     1    14 1   
     3     1    21 1   
     4     1    22 1   
     5     2    10 ar  
     6     2    16 ar  
     7     2    23 1   
     8     3     8 ar  
     9     3    16 ar  
    10     3    24 1   
    11     4    17 ar  
    12     4    18 ar  
    13     4    25 1   
    14     5     6 ar  
    15     5    19 ar  
    16     5    37 1   
    17     6    17 ar  
    18     6    26 1   
    19     7    17 1   
    20     7    20 2   
    21     7    36 1   
    22     7    38 2   
    23     8     9 ar  
    24     8    36 1   
    25     9    10 ar  
    26     9    27 1   
    27    10    11 1   
    28    11    12 1   
    29    11    14 1   
    30    12    13 1   
    31    12    28 1   
    32    12    29 1   
    33    13    30 1   
    34    13    31 1   
    35    14    15 2   
    36    16    32 1   
    37    18    19 ar  
    38    18    33 1   
    39    19    34 1   
    40    35    36 1   
@<TRIPOS>SUBSTRUCTURE
     1 7CJ         1 TEMP              0 ****  ****    0 ROOT
