@<TRIPOS>MOLECULE
7CL
   17    16     1     0     0
SMALL
bcc


@<TRIPOS>ATOM
      1 CL1         -2.7640     0.0860    -0.0050 cl         1 7CL      -0.218400
      2 C1          -1.1510    -0.7240     0.0250 c3         1 7CL       0.057000
      3 C2          -0.0280     0.2880     0.0040 c3         1 7CL      -0.088400
      4 C3           1.3310    -0.4060     0.0270 c3         1 7CL      -0.078400
      5 C4           2.4940     0.5790     0.0080 c3         1 7CL      -0.074400
      6 C5           3.8480    -0.1170     0.0370 c3         1 7CL      -0.089100
      7 H1          -1.1260    -1.3340     0.9260 h1         1 7CL       0.061700
      8 H1A         -1.1170    -1.3810    -0.8420 h1         1 7CL       0.061700
      9 H2          -0.1120     0.9090    -0.8920 hc         1 7CL       0.055700
     10 H2A         -0.1190     0.9540     0.8650 hc         1 7CL       0.055700
     11 H3           1.4060    -1.0370     0.9190 hc         1 7CL       0.039700
     12 H3A          1.4150    -1.0800    -0.8320 hc         1 7CL       0.039700
     13 H4           2.4210     1.2080    -0.8840 hc         1 7CL       0.039700
     14 H4A          2.4090     1.2550     0.8640 hc         1 7CL       0.039700
     15 H5           4.6690     0.6010     0.0170 hc         1 7CL       0.033033
     16 H5A          3.9600    -0.7230     0.9380 hc         1 7CL       0.033033
     17 H5B          3.9680    -0.7800    -0.8220 hc         1 7CL       0.033033
@<TRIPOS>BOND
     1     1     2 1   
     2     2     3 1   
     3     2     7 1   
     4     2     8 1   
     5     3     4 1   
     6     3     9 1   
     7     3    10 1   
     8     4     5 1   
     9     4    11 1   
    10     4    12 1   
    11     5     6 1   
    12     5    13 1   
    13     5    14 1   
    14     6    15 1   
    15     6    16 1   
    16     6    17 1   
@<TRIPOS>SUBSTRUCTURE
     1 7CL         1 TEMP              0 ****  ****    0 ROOT
