@<TRIPOS>MOLECULE
7CL
   17    16     1     0     0
SMALL
No Charge or Current Charge


@<TRIPOS>ATOM
      1 Cl1         -2.8130     0.1330    -0.0080 cl         1 7CL      -0.295000
      2 C1          -1.2150    -0.7320     0.0240 c3         1 7CL       0.133600
      3 C2          -0.0430     0.2680     0.0040 c3         1 7CL      -0.088400
      4 C3           1.3390    -0.4220     0.0300 c3         1 7CL      -0.078400
      5 C4           2.5150     0.5800     0.0090 c3         1 7CL      -0.074400
      6 C5           3.8930    -0.1080     0.0350 c3         1 7CL      -0.089100
      7 H1          -1.1840    -1.3430     0.9360 h1         1 7CL       0.061700
      8 H1A         -1.1740    -1.3910    -0.8520 h1         1 7CL       0.061700
      9 H2          -0.1210     0.8910    -0.8960 hc         1 7CL       0.055700
     10 H2A         -0.1310     0.9390     0.8680 hc         1 7CL       0.055700
     11 H3           1.4130    -1.0450     0.9300 hc         1 7CL       0.039700
     12 H3A          1.4230    -1.0940    -0.8340 hc         1 7CL       0.039700
     13 H4           2.4450     1.2040    -0.8900 hc         1 7CL       0.039700
     14 H4A          2.4360     1.2520     0.8720 hc         1 7CL       0.039700
     15 H5           4.6940     0.6410     0.0190 hc         1 7CL       0.033033
     16 H5A          4.0080    -0.7130     0.9430 hc         1 7CL       0.033033
     17 H5B          4.0180    -0.7620    -0.8360 hc         1 7CL       0.033033
@<TRIPOS>BOND
     1     1     2 1   
     2     2     3 1   
     3     2     7 1   
     4     2     8 1   
     5     3     4 1   
     6     3     9 1   
     7     3    10 1   
     8     4     5 1   
     9     4    11 1   
    10     4    12 1   
    11     5     6 1   
    12     5    13 1   
    13     5    14 1   
    14     6    15 1   
    15     6    16 1   
    16     6    17 1   
@<TRIPOS>SUBSTRUCTURE
     1 7CL         1 TEMP              0 ****  ****    0 ROOT
