@<TRIPOS>MOLECULE
7CM
   38    40     1     0     0
SMALL
bcc


@<TRIPOS>ATOM
      1 C13          1.3400    -0.8260     0.7120 ca         1 7CM      -0.206000
      2 C17          3.4970     2.8620     1.4030 c5         1 7CM      -0.091400
      3 C21          3.2830    -1.4350    -0.5620 ca         1 7CM      -0.135000
      4 C22          2.7680    -2.7140    -0.7030 ca         1 7CM      -0.101000
      5 O01         -2.8840    -2.6750     1.0290 o          1 7CM      -0.594300
      6 S02         -1.7510    -2.3930     0.1690 sy         1 7CM       1.290200
      7 C03         -1.8560    -0.7100    -0.3780 ca         1 7CM      -0.321500
      8 C04         -1.1880    -0.3250    -1.5330 ca         1 7CM       0.009000
      9 C05         -1.2110     1.0050    -1.9160 ca         1 7CM      -0.187000
     10 C06         -2.5440     0.2070     0.4040 ca         1 7CM      -0.010000
     11 C07         -2.5650     1.5330     0.0130 ca         1 7CM      -0.055600
     12 CL1         -3.4120     2.7110     0.9320 cl         1 7CM      -0.066400
     13 C09         -1.8970     1.9180    -1.1410 ca         1 7CM       0.194900
     14 F10         -1.9270     3.1950    -1.5040 f          1 7CM      -0.115900
     15 C12          0.8450    -2.1160     0.5700 ca         1 7CM       0.104600
     16 C14          2.5650    -0.4690     0.1490 ca         1 7CM       0.089600
     17 N15          3.0370     0.8370     0.3260 n          1 7CM      -0.394000
     18 C16          2.5120     1.6990     1.3810 c5         1 7CM       0.094000
     19 C18          3.9700     2.9380    -0.0400 c5         1 7CM      -0.167400
     20 C19          3.8450     1.5200    -0.5440 c          1 7CM       0.710500
     21 O20          4.3490     1.0700    -1.5530 o          1 7CM      -0.599500
     22 C23          1.5520    -3.0720    -0.1420 ca         1 7CM      -0.111000
     23 O24         -1.4750    -3.2150    -0.9920 o          1 7CM      -0.594300
     24 H131         0.7490    -0.1020     1.2580 ha         1 7CM       0.131000
     25 H171         3.0320     3.7800     1.7560 hc         1 7CM       0.062700
     26 H172         4.3310     2.6290     2.0650 hc         1 7CM       0.062700
     27 H211         4.2440    -1.2060    -0.9920 ha         1 7CM       0.164000
     28 H221         3.3400    -3.4510    -1.2500 ha         1 7CM       0.144000
     29 H041        -0.6530    -1.0440    -2.1370 ha         1 7CM       0.169000
     30 H051        -0.7020     1.3330    -2.8120 ha         1 7CM       0.163000
     31 H061        -3.0660    -0.0940     1.3030 ha         1 7CM       0.170000
     32 H111        -0.5900    -2.0330     2.0540 hn         1 7CM       0.431800
     33 H161         2.4680     1.1620     2.3280 h1         1 7CM       0.052700
     34 H162         1.5010     2.0410     1.1350 h1         1 7CM       0.052700
     35 H181         3.3150     3.5700    -0.6470 hc         1 7CM       0.082200
     36 H182         4.9870     3.3070    -0.1660 hc         1 7CM       0.082200
     37 H231         1.1700    -4.0790    -0.2370 ha         1 7CM       0.162000
     38 N11         -0.4090    -2.4570     1.1480 nu         1 7CM      -0.673500
@<TRIPOS>BOND
     1     1    15 ar  
     2     1    16 ar  
     3     1    24 1   
     4     2    18 1   
     5     2    19 1   
     6     2    25 1   
     7     2    26 1   
     8     3     4 ar  
     9     3    16 ar  
    10     3    27 1   
    11     4    22 ar  
    12     4    28 1   
    13     5     6 2   
    14     6     7 1   
    15     6    23 2   
    16     6    38 1   
    17     7     8 ar  
    18     7    10 ar  
    19     8     9 ar  
    20     8    29 1   
    21     9    13 ar  
    22     9    30 1   
    23    10    11 ar  
    24    10    31 1   
    25    11    12 1   
    26    11    13 ar  
    27    13    14 1   
    28    15    22 ar  
    29    15    38 1   
    30    16    17 1   
    31    17    18 1   
    32    17    20 1   
    33    18    33 1   
    34    18    34 1   
    35    19    20 1   
    36    19    35 1   
    37    19    36 1   
    38    20    21 2   
    39    22    37 1   
    40    32    38 1   
@<TRIPOS>SUBSTRUCTURE
     1 7CM         1 TEMP              0 ****  ****    0 ROOT
