@<TRIPOS>MOLECULE
7CM
   38    40     1     0     0
SMALL
No Charge or Current Charge


@<TRIPOS>ATOM
      1 C13          1.6130    -0.2690     1.0500 ca         1 7CM      -0.188000
      2 C17          4.9850     2.3090     2.4620 c5         1 7CM      -0.091400
      3 C21          3.0420    -0.3960    -0.9000 ca         1 7CM      -0.117000
      4 C22          2.2040    -1.3830    -1.4450 ca         1 7CM      -0.083000
      5 O01         -2.6990    -2.0360     1.8660 o          1 7CM      -0.523500
      6 S02         -1.8210    -2.2750     0.7200 sy         1 7CM       1.148600
      7 C03         -2.3410    -1.2490    -0.6570 ca         1 7CM      -0.321500
      8 C04         -2.3050    -1.7500    -1.9750 ca         1 7CM       0.027000
      9 C05         -2.6990    -0.9260    -3.0440 ca         1 7CM      -0.169000
     10 C06         -2.7710     0.0740    -0.4150 ca         1 7CM       0.008000
     11 C07         -3.1630     0.8930    -1.4870 ca         1 7CM       0.036000
     12 Cl1         -3.6940     2.5450    -1.1680 cl         1 7CM      -0.158000
     13 C09         -3.1250     0.3890    -2.8010 ca         1 7CM       0.230000
     14 F10         -3.5000     1.1680    -3.8420 f          1 7CM      -0.151000
     15 C12          0.7610    -1.2460     0.5100 ca         1 7CM       0.243000
     16 C14          2.7950     0.1320     0.3870 ca         1 7CM      -0.003000
     17 N15          3.5350     1.2540     0.9220 n          1 7CM      -0.234400
     18 C16          3.7130     1.4130     2.3850 c5         1 7CM       0.094000
     19 C18          4.7580     3.2120     1.2270 c5         1 7CM      -0.167400
     20 C19          4.2260     2.2350     0.1810 c          1 7CM       0.568000
     21 O20          4.4830     2.2080    -1.0150 o          1 7CM      -0.524000
     22 C23          1.0720    -1.8150    -0.7380 ca         1 7CM      -0.093000
     23 O24         -1.4740    -3.6240     0.2630 o          1 7CM      -0.523500
     24 H131         1.3470     0.1850     2.0000 ha         1 7CM       0.113000
     25 H171         5.0580     2.8670     3.4030 hc         1 7CM       0.062700
     26 H172         5.8980     1.7100     2.3550 hc         1 7CM       0.062700
     27 H211         3.9100    -0.0900    -1.4750 ha         1 7CM       0.146000
     28 H221         2.4300    -1.8090    -2.4200 ha         1 7CM       0.126000
     29 H041        -1.9770    -2.7690    -2.1780 ha         1 7CM       0.151000
     30 H051        -2.6750    -1.3060    -4.0620 ha         1 7CM       0.145000
     31 H061        -2.7980     0.4710     0.5990 ha         1 7CM       0.152000
     32 H111        -0.5800    -1.0780     2.0730 hn         1 7CM       0.487000
     33 H161         3.8560     0.4500     2.8940 h1         1 7CM       0.052700
     34 H162         2.8420     1.9160     2.8260 h1         1 7CM       0.052700
     35 H181         3.9580     3.9250     1.4590 hc         1 7CM       0.082200
     36 H182         5.6370     3.7560     0.8640 hc         1 7CM       0.082200
     37 H231         0.4420    -2.5830    -1.1730 ha         1 7CM       0.144000
     38 N11         -0.3710    -1.6040     1.2370 nu         1 7CM      -0.867100
@<TRIPOS>BOND
     1     1    15 ar  
     2     1    16 ar  
     3     1    24 1   
     4     2    18 1   
     5     2    19 1   
     6     2    25 1   
     7     2    26 1   
     8     3     4 ar  
     9     3    16 ar  
    10     3    27 1   
    11     4    22 ar  
    12     4    28 1   
    13     5     6 2   
    14     6     7 1   
    15     6    23 2   
    16     6    38 1   
    17     7     8 ar  
    18     7    10 ar  
    19     8     9 ar  
    20     8    29 1   
    21     9    13 ar  
    22     9    30 1   
    23    10    11 ar  
    24    10    31 1   
    25    11    12 1   
    26    11    13 ar  
    27    13    14 1   
    28    15    22 ar  
    29    15    38 1   
    30    16    17 1   
    31    17    18 1   
    32    17    20 1   
    33    18    33 1   
    34    18    34 1   
    35    19    20 1   
    36    19    35 1   
    37    19    36 1   
    38    20    21 2   
    39    22    37 1   
    40    32    38 1   
@<TRIPOS>SUBSTRUCTURE
     1 7CM         1 TEMP              0 ****  ****    0 ROOT
