@<TRIPOS>MOLECULE
7CN
   36    38     1     0     0
SMALL
abcg2


@<TRIPOS>ATOM
      1 C10          4.5910     2.9070    -0.0780 c5         1 7CN      -0.132200
      2 C13          3.7290    -1.3470     0.9630 ca         1 7CN      -0.099000
      3 C15          2.1940    -3.0820     0.2860 ca         1 7CN      -0.078000
      4 C17         -0.8780    -0.5030     1.3450 ca         1 7CN       0.004000
      5 C20         -2.1950     1.2480    -0.3580 ca         1 7CN      -0.045900
      6 C22         -2.0520    -0.0770    -0.7360 ca         1 7CN       0.003000
      7 S02         -1.1000    -2.6100    -0.3830 sy         1 7CN       1.142600
      8 C04          1.4990    -2.1550    -0.4790 ca         1 7CN       0.236000
      9 C05          1.9180    -0.8320    -0.5360 ca         1 7CN      -0.161000
     10 C06          3.0300    -0.4240     0.1900 ca         1 7CN      -0.020000
     11 N07          3.4090     0.9280     0.1580 n          1 7CN      -0.160600
     12 C08          2.5030     2.0040     0.2090 c2         1 7CN      -0.078400
     13 C09          3.1300     3.1690     0.0840 c2         1 7CN      -0.293200
     14 C11          4.6910     1.3960    -0.0290 c          1 7CN       0.562000
     15 O12          5.6820     0.7090    -0.1450 o          1 7CN      -0.510000
     16 C14          3.3080    -2.6670     1.0000 ca         1 7CN      -0.090000
     17 C16         -1.3900    -0.9370     0.1310 ca         1 7CN      -0.306500
     18 C18         -1.0340     0.8290     1.6960 ca         1 7CN      -0.136000
     19 C19         -1.6890     1.7120     0.8500 ca         1 7CN      -0.038000
     20 O23         -0.8910    -3.4090     0.8080 o          1 7CN      -0.523000
     21 H1           5.0000     3.2760    -1.0230 hc         1 7CN       0.093200
     22 H2           5.2000     3.3480     0.7170 hc         1 7CN       0.093200
     23 H3           4.5840    -1.0380     1.5470 ha         1 7CN       0.138000
     24 H4           1.8720    -4.1130     0.3150 ha         1 7CN       0.145000
     25 H5          -0.3660    -1.1820     2.0130 ha         1 7CN       0.146000
     26 H6          -2.4460    -0.4320    -1.6790 ha         1 7CN       0.151000
     27 H7           0.2460    -2.1440    -2.1190 hn         1 7CN       0.489000
     28 H8           1.3760    -0.1240    -1.1530 ha         1 7CN       0.121000
     29 H9           1.4530     1.8080     0.3670 h4         1 7CN       0.215000
     30 H10          2.6690     4.1420     0.1150 ha         1 7CN       0.212000
     31 H11          3.8540    -3.3810     1.6020 ha         1 7CN       0.127000
     32 H12         -0.6390     1.1860     2.6370 ha         1 7CN       0.126000
     33 H13         -1.8030     2.7480     1.1370 ha         1 7CN       0.133000
     34 N03          0.3480    -2.5690    -1.2020 nu         1 7CN      -0.866100
     35 BR1         -3.0960     2.4400    -1.5040 br         1 7CN      -0.079100
     36 O01         -2.1000    -2.9850    -1.3640 o          1 7CN      -0.523000
@<TRIPOS>BOND
     1     1    13 1   
     2     1    14 1   
     3     1    21 1   
     4     1    22 1   
     5     2    10 ar  
     6     2    16 ar  
     7     2    23 1   
     8     3     8 ar  
     9     3    16 ar  
    10     3    24 1   
    11     4    17 ar  
    12     4    18 ar  
    13     4    25 1   
    14     5     6 ar  
    15     5    19 ar  
    16     5    35 1   
    17     6    17 ar  
    18     6    26 1   
    19     7    17 1   
    20     7    20 2   
    21     7    34 1   
    22     7    36 2   
    23     8     9 ar  
    24     8    34 1   
    25     9    10 ar  
    26     9    28 1   
    27    10    11 1   
    28    11    12 1   
    29    11    14 1   
    30    12    13 2   
    31    12    29 1   
    32    13    30 1   
    33    14    15 2   
    34    16    31 1   
    35    18    19 ar  
    36    18    32 1   
    37    19    33 1   
    38    27    34 1   
@<TRIPOS>SUBSTRUCTURE
     1 7CN         1 TEMP              0 ****  ****    0 ROOT
