@<TRIPOS>MOLECULE
7CN
   36    38     1     0     0
SMALL
No Charge or Current Charge


@<TRIPOS>ATOM
      1 C10          5.9980     2.6570    -1.0260 c5         1 7CN      -0.132200
      2 C13          3.4490    -0.2660     1.2620 ca         1 7CN      -0.099000
      3 C15          1.5750    -1.7800     0.9130 ca         1 7CN      -0.078000
      4 C17         -1.9480    -1.9570     1.6850 ca         1 7CN       0.004000
      5 C20         -2.9260     0.5890     0.9940 ca         1 7CN      -0.045900
      6 C22         -2.3270    -0.2190     0.0120 ca         1 7CN       0.003000
      7 S02         -1.0520    -2.5110    -0.9000 sy         1 7CN       1.142600
      8 C04          1.3990    -1.2750    -0.3900 ca         1 7CN       0.236000
      9 C05          2.2620    -0.2700    -0.8580 ca         1 7CN      -0.161000
     10 C06          3.2940     0.2430    -0.0440 ca         1 7CN      -0.020000
     11 N07          4.1560     1.2850    -0.5430 n          1 7CN      -0.160600
     12 C08          3.7630     2.2950    -1.4320 c2         1 7CN      -0.078400
     13 C09          4.7540     3.1170    -1.7690 c2         1 7CN      -0.293200
     14 C11          5.5410     1.3910    -0.2580 c          1 7CN       0.562000
     15 O12          6.2230     0.6030     0.3880 o          1 7CN      -0.510000
     16 C14          2.5950    -1.2750     1.7360 ca         1 7CN      -0.090000
     17 C16         -1.8340    -1.4950     0.3560 ca         1 7CN      -0.306500
     18 C18         -2.5500    -1.1430     2.6600 ca         1 7CN      -0.136000
     19 C19         -3.0390     0.1300     2.3180 ca         1 7CN      -0.038000
     20 O23         -0.6650    -3.8140    -0.3520 o          1 7CN      -0.523000
     21 H1           6.8450     2.4040    -1.6730 hc         1 7CN       0.093200
     22 H2           6.3540     3.3970    -0.3020 hc         1 7CN       0.093200
     23 H3           4.2190     0.1250     1.9220 ha         1 7CN       0.138000
     24 H4           0.9340    -2.5660     1.2960 ha         1 7CN       0.145000
     25 H5          -1.5740    -2.9400     1.9680 ha         1 7CN       0.146000
     26 H6          -2.2420     0.1510    -1.0090 ha         1 7CN       0.151000
     27 H7           0.2690    -1.2580    -2.1250 hn         1 7CN       0.489000
     28 H8           2.1360     0.1050    -1.8700 ha         1 7CN       0.121000
     29 H9           2.7210     2.3370    -1.7570 h4         1 7CN       0.215000
     30 H10          4.6670     3.9740    -2.4430 ha         1 7CN       0.212000
     31 H11          2.7210    -1.6640     2.7440 ha         1 7CN       0.127000
     32 H12         -2.6370    -1.4990     3.6840 ha         1 7CN       0.126000
     33 H13         -3.5040     0.7570     3.0750 ha         1 7CN       0.133000
     34 N03          0.4000    -1.7370    -1.2450 nu         1 7CN      -0.866100
     35 Br1         -3.5880     2.3220     0.5270 br         1 7CN      -0.079100
     36 O01         -1.7810    -2.3750    -2.1630 o          1 7CN      -0.523000
@<TRIPOS>BOND
     1     1    13 1   
     2     1    14 1   
     3     1    21 1   
     4     1    22 1   
     5     2    10 ar  
     6     2    16 ar  
     7     2    23 1   
     8     3     8 ar  
     9     3    16 ar  
    10     3    24 1   
    11     4    17 ar  
    12     4    18 ar  
    13     4    25 1   
    14     5     6 ar  
    15     5    19 ar  
    16     5    35 1   
    17     6    17 ar  
    18     6    26 1   
    19     7    17 1   
    20     7    20 2   
    21     7    34 1   
    22     7    36 2   
    23     8     9 ar  
    24     8    34 1   
    25     9    10 ar  
    26     9    28 1   
    27    10    11 1   
    28    11    12 1   
    29    11    14 1   
    30    12    13 2   
    31    12    29 1   
    32    13    30 1   
    33    14    15 2   
    34    16    31 1   
    35    18    19 ar  
    36    18    32 1   
    37    19    33 1   
    38    27    34 1   
@<TRIPOS>SUBSTRUCTURE
     1 7CN         1 TEMP              0 ****  ****    0 ROOT
