@<TRIPOS>MOLECULE
7CO
   38    40     1     0     0
SMALL
bcc


@<TRIPOS>ATOM
      1 C13          0.8400     0.5520    -0.8540 ca         1 7CO      -0.202000
      2 C17          4.2360    -2.0720    -1.5290 c5         1 7CO      -0.091400
      3 C21          2.4440     1.8250     0.4050 ca         1 7CO      -0.133000
      4 C22          1.5120     2.8420     0.5310 ca         1 7CO      -0.099000
      5 O01         -3.7610     0.8060    -1.2300 o          1 7CO      -0.586800
      6 S02         -2.6480     1.0950    -0.3510 sy         1 7CO       1.310200
      7 C03         -2.1800    -0.4090     0.4830 ca         1 7CO      -0.388500
      8 C04         -2.0000    -0.5160     1.8600 ca         1 7CO       0.258900
      9 F05         -2.1780     0.5380     2.6460 f          1 7CO      -0.115400
     10 C06         -1.6350    -1.7090     2.4540 ca         1 7CO      -0.211000
     11 C07         -1.4380    -2.8260     1.6610 ca         1 7CO      -0.024000
     12 C08         -1.6020    -2.7640     0.2840 ca         1 7CO      -0.211000
     13 C09         -1.9710    -1.5610    -0.2720 ca         1 7CO       0.258900
     14 F10         -2.1050    -1.4780    -1.5970 f          1 7CO      -0.115400
     15 C12         -0.0770     1.5880    -0.7300 ca         1 7CO       0.113600
     16 C14          2.1090     0.6580    -0.2890 ca         1 7CO       0.086600
     17 N15          3.0180    -0.3930    -0.4540 n          1 7CO      -0.395000
     18 C16          2.8960    -1.3450    -1.5530 c5         1 7CO       0.095000
     19 C18          4.6210    -2.0320    -0.0580 c5         1 7CO      -0.168400
     20 C19          3.9570    -0.7790     0.4640 c          1 7CO       0.709500
     21 O20          4.1870    -0.2280     1.5210 o          1 7CO      -0.598500
     22 C23          0.2480     2.7410    -0.0320 ca         1 7CO      -0.116000
     23 O24         -2.7580     2.1450     0.6350 o          1 7CO      -0.586800
     24 H131         0.5530    -0.3370    -1.4000 ha         1 7CO       0.130000
     25 H172         4.1570    -3.0800    -1.9300 hc         1 7CO       0.061700
     26 H171         4.9660    -1.5250    -2.1270 hc         1 7CO       0.061700
     27 H211         3.4270     1.9550     0.8290 ha         1 7CO       0.160000
     28 H221         1.7870     3.7430     1.0630 ha         1 7CO       0.143000
     29 H061        -1.5070    -1.7540     3.5260 ha         1 7CO       0.160000
     30 H071        -1.1490    -3.7600     2.1200 ha         1 7CO       0.144000
     31 H081        -1.4440    -3.6280    -0.3470 ha         1 7CO       0.160000
     32 H161         2.7070    -0.8250    -2.4910 h1         1 7CO       0.051700
     33 H162         2.0690    -2.0410    -1.3770 h1         1 7CO       0.051700
     34 H181         4.2090    -2.8850     0.4920 hc         1 7CO       0.080200
     35 H182         5.6930    -2.0110     0.1290 hc         1 7CO       0.080200
     36 H231        -0.4590     3.5540     0.0460 ha         1 7CO       0.165000
     37 H111        -1.3790     0.9360    -2.1980 hn         1 7CO       0.440800
     38 N11         -1.3600     1.4580    -1.3280 nu         1 7CO      -0.683500
@<TRIPOS>BOND
     1     1    15 ar  
     2     1    16 ar  
     3     1    24 1   
     4     2    18 1   
     5     2    19 1   
     6     2    25 1   
     7     2    26 1   
     8     3     4 ar  
     9     3    16 ar  
    10     3    27 1   
    11     4    22 ar  
    12     4    28 1   
    13     5     6 2   
    14     6     7 1   
    15     6    23 2   
    16     6    38 1   
    17     7     8 ar  
    18     7    13 ar  
    19     8     9 1   
    20     8    10 ar  
    21    10    11 ar  
    22    10    29 1   
    23    11    12 ar  
    24    11    30 1   
    25    12    13 ar  
    26    12    31 1   
    27    13    14 1   
    28    15    22 ar  
    29    15    38 1   
    30    16    17 1   
    31    17    18 1   
    32    17    20 1   
    33    18    32 1   
    34    18    33 1   
    35    19    20 1   
    36    19    34 1   
    37    19    35 1   
    38    20    21 2   
    39    22    36 1   
    40    37    38 1   
@<TRIPOS>SUBSTRUCTURE
     1 7CO         1 TEMP              0 ****  ****    0 ROOT
