@<TRIPOS>MOLECULE
7CO
   38    40     1     0     0
SMALL
No Charge or Current Charge


@<TRIPOS>ATOM
      1 C13          1.2130     0.1530    -1.1130 ca         1 7CO      -0.184000
      2 C17          5.2470    -1.1960    -2.4980 c5         1 7CO      -0.091400
      3 C21          2.5470     0.9480     0.7440 ca         1 7CO      -0.115000
      4 C22          1.4270     1.6220     1.2550 ca         1 7CO      -0.081000
      5 O01         -3.4610     0.1940    -1.8000 o          1 7CO      -0.516000
      6 S02         -2.6930     0.8410    -0.7360 sy         1 7CO       1.168600
      7 C03         -2.7560    -0.1640     0.7350 ca         1 7CO      -0.388500
      8 C04         -3.0570     0.3800     1.9980 ca         1 7CO       0.294000
      9 F05         -3.3300     1.6920     2.1610 f          1 7CO      -0.150500
     10 C06         -3.0870    -0.4420     3.1350 ca         1 7CO      -0.193000
     11 C07         -2.8190    -1.8140     3.0280 ca         1 7CO      -0.006000
     12 C08         -2.5210    -2.3600     1.7710 ca         1 7CO      -0.193000
     13 C09         -2.4910    -1.5410     0.6320 ca         1 7CO       0.294000
     14 F10         -2.1880    -2.1090    -0.5560 f          1 7CO      -0.150500
     15 C12          0.0840     0.8140    -0.6050 ca         1 7CO       0.252000
     16 C14          2.4750     0.2520    -0.4840 ca         1 7CO      -0.006000
     17 N15          3.5520    -0.5820    -0.9700 n          1 7CO      -0.235400
     18 C16          3.7420    -0.8010    -2.4240 c5         1 7CO       0.095000
     19 C18          5.3810    -2.0070    -1.1870 c5         1 7CO      -0.168400
     20 C19          4.5610    -1.1890    -0.1920 c          1 7CO       0.567000
     21 O20          4.8180    -0.9650     0.9830 o          1 7CO      -0.523000
     22 C23          0.2000     1.5650     0.5780 ca         1 7CO      -0.098000
     23 O24         -2.8360     2.2670    -0.4370 o          1 7CO      -0.516000
     24 H131         1.1040    -0.4500    -2.0090 ha         1 7CO       0.112000
     25 H172         5.4920    -1.7760    -3.3960 hc         1 7CO       0.061700
     26 H171         5.8910    -0.3080    -2.4850 hc         1 7CO       0.061700
     27 H211         3.4800     1.0190     1.2940 ha         1 7CO       0.142000
     28 H221         1.5080     2.1860     2.1820 ha         1 7CO       0.125000
     29 H061        -3.3210    -0.0090     4.1040 ha         1 7CO       0.142000
     30 H071        -2.8430    -2.4500     3.9110 ha         1 7CO       0.126000
     31 H081        -2.3100    -3.4210     1.6750 ha         1 7CO       0.142000
     32 H161         3.5240     0.1010    -3.0110 h1         1 7CO       0.051700
     33 H162         3.0960    -1.6150    -2.7780 h1         1 7CO       0.051700
     34 H181         4.8800    -2.9720    -1.3220 hc         1 7CO       0.080200
     35 H182         6.4030    -2.1740    -0.8310 hc         1 7CO       0.080200
     36 H231        -0.6530     2.0970     0.9870 ha         1 7CO       0.147000
     37 H111        -1.1560     0.0050    -2.0410 hn         1 7CO       0.496000
     38 N11         -1.1190     0.6840    -1.2940 nu         1 7CO      -0.877100
@<TRIPOS>BOND
     1     1    15 ar  
     2     1    16 ar  
     3     1    24 1   
     4     2    18 1   
     5     2    19 1   
     6     2    25 1   
     7     2    26 1   
     8     3     4 ar  
     9     3    16 ar  
    10     3    27 1   
    11     4    22 ar  
    12     4    28 1   
    13     5     6 2   
    14     6     7 1   
    15     6    23 2   
    16     6    38 1   
    17     7     8 ar  
    18     7    13 ar  
    19     8     9 1   
    20     8    10 ar  
    21    10    11 ar  
    22    10    29 1   
    23    11    12 ar  
    24    11    30 1   
    25    12    13 ar  
    26    12    31 1   
    27    13    14 1   
    28    15    22 ar  
    29    15    38 1   
    30    16    17 1   
    31    17    18 1   
    32    17    20 1   
    33    18    32 1   
    34    18    33 1   
    35    19    20 1   
    36    19    34 1   
    37    19    35 1   
    38    20    21 2   
    39    22    36 1   
    40    37    38 1   
@<TRIPOS>SUBSTRUCTURE
     1 7CO         1 TEMP              0 ****  ****    0 ROOT
