@<TRIPOS>MOLECULE
7CP
   43    46     1     0     0
SMALL
No Charge or Current Charge


@<TRIPOS>ATOM
      1 C1L         -2.7550    -0.2810    -1.3980 c6         1 7CP      -0.128400
      2 C1J         -4.0140     0.3970    -1.9990 c6         1 7CP       0.164800
      3 N1W         -5.2660    -0.2080    -1.4740 n3         1 7CP      -0.713600
      4 C1A         -5.5600    -1.5580    -2.0140 c3         1 7CP       0.153100
      5 C1K         -5.3180    -0.1260     0.0090 c6         1 7CP       0.164800
      6 C1M         -4.0890    -0.8040     0.6730 c6         1 7CP      -0.128400
      7 C1Y         -2.7250    -0.2260     0.1640 c6         1 7CP       0.150400
      8 N1N         -2.6050     1.1880     0.5740 ns         1 7CP      -0.500900
      9 C1O         -1.4360     1.9180     0.5930 c          1 7CP       0.600200
     10 O1D         -1.4650     3.1270     0.7560 o          1 7CP      -0.555000
     11 C1R         -0.2040     1.1110     0.3840 cc         1 7CP      -0.111300
     12 N1X          1.1510     1.4710     0.1960 na         1 7CP      -0.028700
     13 C1B          1.6920     2.8390     0.1020 c3         1 7CP       0.050900
     14 C1U          1.9480     0.3220     0.0670 ca         1 7CP      -0.025200
     15 C1Q          3.3420     0.1500    -0.1300 ca         1 7CP       0.107000
     16 Cl1F         4.4750     1.5030    -0.2680 cl         1 7CP      -0.168000
     17 C1P          3.8390    -1.1770    -0.2130 ca         1 7CP       0.138000
     18 Cl1E         5.5600    -1.4850    -0.4580 cl         1 7CP      -0.173000
     19 C1H          2.9710    -2.2850    -0.0980 ca         1 7CP      -0.122000
     20 C1I          1.5920    -2.0910     0.1020 ca         1 7CP      -0.049000
     21 C1T          1.1250    -0.7740     0.1760 ca         1 7CP      -0.085800
     22 C1S         -0.2100    -0.2770     0.3820 cd         1 7CP      -0.125400
     23 C1V         -1.4830    -1.0450     0.6830 c6         1 7CP       0.072600
     24 C1G         -1.5670    -1.3890     2.1210 c1         1 7CP       0.302900
     25 N1C         -1.6120    -1.6850     3.2480 n1         1 7CP      -0.446000
     26 H1L         -2.7080    -1.3230    -1.7400 hc         1 7CP       0.061450
     27 H1LA        -1.8620     0.2040    -1.8150 hc         1 7CP       0.061450
     28 H1J         -3.9880     1.4720    -1.7640 h1         1 7CP       0.057450
     29 H1JA        -3.9790     0.3180    -3.0960 h1         1 7CP       0.057450
     30 H1A         -4.8050    -2.2930    -1.7050 h1         1 7CP       0.032033
     31 H1AA        -6.5390    -1.9080    -1.6630 h1         1 7CP       0.032033
     32 H1AB        -5.5850    -1.5360    -3.1120 h1         1 7CP       0.032033
     33 H1K         -5.3600     0.9280     0.3230 h1         1 7CP       0.057450
     34 H1KA        -6.2390    -0.5960     0.3880 h1         1 7CP       0.057450
     35 H1M         -4.1790    -0.6760     1.7600 hc         1 7CP       0.061450
     36 H1MA        -4.1280    -1.8860     0.4910 hc         1 7CP       0.061450
     37 HN1N        -3.4510     1.7190     0.7330 hn         1 7CP       0.328500
     38 H1B          2.4070     3.0100     0.9150 h1         1 7CP       0.068700
     39 H1BA         2.1890     2.9730    -0.8660 h1         1 7CP       0.068700
     40 H1BB         0.8900     3.5790     0.1810 h1         1 7CP       0.068700
     41 H1H          3.3710    -3.2940    -0.1620 ha         1 7CP       0.134000
     42 H1I          0.9160    -2.9370     0.1950 ha         1 7CP       0.124000
     43 H1V         -1.4580    -2.0140     0.1670 hc         1 7CP       0.089700
@<TRIPOS>BOND
     1     1     2 1   
     2     1     7 1   
     3     1    26 1   
     4     1    27 1   
     5     2     3 1   
     6     2    28 1   
     7     2    29 1   
     8     3     4 1   
     9     3     5 1   
    10     4    30 1   
    11     4    31 1   
    12     4    32 1   
    13     5     6 1   
    14     5    33 1   
    15     5    34 1   
    16     6     7 1   
    17     6    35 1   
    18     6    36 1   
    19     7     8 1   
    20     7    23 1   
    21     8     9 1   
    22     8    37 1   
    23     9    10 2   
    24     9    11 1   
    25    11    12 1   
    26    11    22 2   
    27    12    13 1   
    28    12    14 1   
    29    13    38 1   
    30    13    39 1   
    31    13    40 1   
    32    14    15 ar  
    33    14    21 ar  
    34    15    16 1   
    35    15    17 ar  
    36    17    18 1   
    37    17    19 ar  
    38    19    20 ar  
    39    19    41 1   
    40    20    21 ar  
    41    20    42 1   
    42    21    22 1   
    43    22    23 1   
    44    23    24 1   
    45    23    43 1   
    46    24    25 3   
@<TRIPOS>SUBSTRUCTURE
     1 7CP         1 TEMP              0 ****  ****    0 ROOT
