@<TRIPOS>MOLECULE
7CP
   43    46     1     0     0
SMALL
abcg2


@<TRIPOS>ATOM
      1 C1L         -2.6640    -0.2680    -1.3540 c6         1 7CP      -0.128400
      2 C1J         -3.8960     0.4060    -1.9560 c6         1 7CP       0.164800
      3 N1W         -5.1540    -0.1540    -1.5010 n3         1 7CP      -0.713600
      4 C1A         -5.4410    -1.4600    -2.0570 c3         1 7CP       0.153100
      5 C1K         -5.2300    -0.1080    -0.0550 c6         1 7CP       0.164800
      6 C1M         -4.0480    -0.7760     0.6580 c6         1 7CP      -0.128400
      7 C1Y         -2.6960    -0.2340     0.1850 c6         1 7CP       0.150400
      8 N1N         -2.5300     1.1260     0.6940 ns         1 7CP      -0.500900
      9 C1O         -1.3770     1.8310     0.7250 c          1 7CP       0.600200
     10 O1D         -1.3350     3.0150     1.0280 o          1 7CP      -0.555000
     11 C1R         -0.1920     1.0020     0.4360 cc         1 7CP      -0.111300
     12 N1X          1.0920     1.4210     0.1860 na         1 7CP      -0.028700
     13 C1B          1.4980     2.7980    -0.0460 c3         1 7CP       0.050900
     14 C1U          1.8760     0.3050     0.0640 ca         1 7CP      -0.025200
     15 C1Q          3.2480     0.1470    -0.1900 ca         1 7CP       0.107000
     16 CL1F         4.3130     1.4850    -0.3820 cl         1 7CP      -0.168000
     17 C1P          3.7480    -1.1410    -0.2690 ca         1 7CP       0.138000
     18 CL1E         5.4260    -1.3930    -0.5790 cl         1 7CP      -0.173000
     19 C1H          2.9370    -2.2730    -0.0960 ca         1 7CP      -0.122000
     20 C1I          1.5980    -2.1290     0.1640 ca         1 7CP      -0.049000
     21 C1T          1.0620    -0.8410     0.2420 ca         1 7CP      -0.085800
     22 C1S         -0.2460    -0.3610     0.4710 cd         1 7CP      -0.125400
     23 C1V         -1.5270    -1.0870     0.7260 c6         1 7CP       0.072600
     24 C1G         -1.6580    -1.3470     2.1620 c1         1 7CP       0.302900
     25 N1C         -1.7380    -1.5450     3.2920 n1         1 7CP      -0.446000
     26 H1L         -2.6200    -1.3130    -1.6740 hc         1 7CP       0.061450
     27 H1LA        -1.7610     0.2120    -1.7350 hc         1 7CP       0.061450
     28 H1J         -3.8830     1.4740    -1.7150 h1         1 7CP       0.057450
     29 H1JA        -3.8470     0.3380    -3.0450 h1         1 7CP       0.057450
     30 H1A         -4.7420    -2.2580    -1.7680 h1         1 7CP       0.032033
     31 H1AA        -6.4400    -1.7770    -1.7510 h1         1 7CP       0.032033
     32 H1AB        -5.4350    -1.4020    -3.1460 h1         1 7CP       0.032033
     33 H1K         -5.3130     0.9400     0.2510 h1         1 7CP       0.057450
     34 H1KA        -6.1540    -0.5880     0.2730 h1         1 7CP       0.057450
     35 H1M         -4.1550    -0.6430     1.7380 hc         1 7CP       0.061450
     36 H1MA        -4.0670    -1.8530     0.4690 hc         1 7CP       0.061450
     37 HN1N        -3.3620     1.6520     0.9240 hn         1 7CP       0.328500
     38 H1B          2.1900     3.1340     0.7230 h1         1 7CP       0.068700
     39 H1BA         1.9650     2.8960    -1.0220 h1         1 7CP       0.068700
     40 H1BB         0.6220     3.4300    -0.0160 h1         1 7CP       0.068700
     41 H1H          3.3810    -3.2560    -0.1680 ha         1 7CP       0.134000
     42 H1I          0.9710    -3.0000     0.3020 ha         1 7CP       0.124000
     43 H1V         -1.5390    -2.0540     0.2180 hc         1 7CP       0.089700
@<TRIPOS>BOND
     1     1     2 1   
     2     1     7 1   
     3     1    26 1   
     4     1    27 1   
     5     2     3 1   
     6     2    28 1   
     7     2    29 1   
     8     3     4 1   
     9     3     5 1   
    10     4    30 1   
    11     4    31 1   
    12     4    32 1   
    13     5     6 1   
    14     5    33 1   
    15     5    34 1   
    16     6     7 1   
    17     6    35 1   
    18     6    36 1   
    19     7     8 1   
    20     7    23 1   
    21     8     9 1   
    22     8    37 1   
    23     9    10 2   
    24     9    11 1   
    25    11    12 1   
    26    11    22 2   
    27    12    13 1   
    28    12    14 1   
    29    13    38 1   
    30    13    39 1   
    31    13    40 1   
    32    14    15 ar  
    33    14    21 ar  
    34    15    16 1   
    35    15    17 ar  
    36    17    18 1   
    37    17    19 ar  
    38    19    20 ar  
    39    19    41 1   
    40    20    21 ar  
    41    20    42 1   
    42    21    22 1   
    43    22    23 1   
    44    23    24 1   
    45    23    43 1   
    46    24    25 3   
@<TRIPOS>SUBSTRUCTURE
     1 7CP         1 TEMP              0 ****  ****    0 ROOT
