@<TRIPOS>MOLECULE
7CR
   55    58     1     0     0
SMALL
bcc


@<TRIPOS>ATOM
      1 C1          -3.1240     1.0810    -0.6870 c3         1 7CR      -0.116400
      2 C2          -2.1890     2.2550    -0.9540 c3         1 7CR       0.170800
      3 C3          -0.4030     3.6020    -0.0980 c6         1 7CR       0.141300
      4 C4           0.6570     3.7200     0.9840 c6         1 7CR       0.108000
      5 C5           0.9020     1.3120     0.9640 c6         1 7CR       0.108000
      6 C6          -0.1670     1.2320    -0.1120 c6         1 7CR       0.141300
      7 C8           4.9690     1.7330     0.3800 c3         1 7CR       0.206700
      8 C10          5.6220    -0.2170    -1.0470 ca         1 7CR      -0.098500
      9 C11          6.0590    -1.5260    -1.1750 ca         1 7CR       0.027900
     10 C12          6.3440    -2.3100    -0.0700 ca         1 7CR      -0.106000
     11 C13          6.1780    -1.7470     1.1860 ca         1 7CR       0.027900
     12 C15         -5.4070     0.1020    -1.0100 ca         1 7CR      -0.114300
     13 C16         -5.7330    -0.9370    -1.8780 ca         1 7CR      -0.105000
     14 C17         -6.5750    -1.9840    -1.5030 ca         1 7CR      -0.123000
     15 C19         -8.1280    -2.2670     1.7390 c          1 7CR       0.828600
     16 C20         -6.7670    -0.9110     0.6370 ca         1 7CR       0.053100
     17 C21         -5.9410     0.1240     0.2840 ca         1 7CR      -0.091000
     18 CL1          6.5290    -2.7030     2.5840 cl         1 7CR      -0.096900
     19 O3          -8.7910    -2.6880     2.6480 o          1 7CR      -0.579500
     20 N2          -7.9310    -2.7740     0.4950 ns         1 7CR      -0.477100
     21 O4          -7.4060    -1.1120     1.8270 os         1 7CR      -0.287200
     22 C18         -7.0850    -1.9510    -0.2240 ca         1 7CR      -0.005400
     23 C           -4.4610     1.2180    -1.4160 c3         1 7CR       0.195400
     24 O           -4.2900     1.3120    -2.8100 oh         1 7CR      -0.585800
     25 N           -1.1030     2.3350     0.0070 n3         1 7CR      -0.721600
     26 N1           1.5730     2.5980     0.9070 n          1 7CR      -0.471800
     27 C7           2.8870     2.7930     0.6940 c          1 7CR       0.763100
     28 O1           3.4290     3.8800     0.6160 o          1 7CR      -0.595000
     29 O2           3.5590     1.6400     0.5800 os         1 7CR      -0.434900
     30 C9           5.4660     0.3270     0.2220 ca         1 7CR      -0.082300
     31 C14          5.7430    -0.4420     1.3460 ca         1 7CR      -0.098500
     32 H1          -2.6660     0.1280    -0.9720 hc         1 7CR       0.057200
     33 H2          -3.3100     1.0220     0.3890 hc         1 7CR       0.057200
     34 H3          -1.8080     2.2170    -1.9870 h1         1 7CR       0.038200
     35 H4          -2.7660     3.1810    -0.8710 h1         1 7CR       0.038200
     36 H5          -1.1200     4.4170     0.0250 h1         1 7CR       0.042200
     37 H6           0.0710     3.7310    -1.0870 h1         1 7CR       0.042200
     38 H7           1.2000     4.6550     0.8790 h1         1 7CR       0.067450
     39 H8           0.1760     3.7180     1.9670 h1         1 7CR       0.067450
     40 H9           0.4350     1.2060     1.9480 h1         1 7CR       0.067450
     41 H10          1.6080     0.4970     0.8450 h1         1 7CR       0.067450
     42 H11          0.3170     1.2160    -1.1040 h1         1 7CR       0.042200
     43 H12         -0.6960     0.2850     0.0030 h1         1 7CR       0.042200
     44 H13          5.1960     2.3200    -0.5120 h1         1 7CR       0.061700
     45 H14          5.4460     2.2140     1.2360 h1         1 7CR       0.061700
     46 H15          5.4100     0.3760    -1.9270 ha         1 7CR       0.155000
     47 H16          6.6890    -3.3290    -0.1820 ha         1 7CR       0.164000
     48 H17         -5.3360    -0.9440    -2.8840 ha         1 7CR       0.141000
     49 H18         -6.8170    -2.7800    -2.1940 ha         1 7CR       0.146000
     50 H19         -5.7190     0.9260     0.9770 ha         1 7CR       0.158000
     51 H20         -8.3560    -3.6300     0.1740 hn         1 7CR       0.363500
     52 H21         -4.9180     2.1670    -1.1140 h1         1 7CR       0.082700
     53 H22         -3.6700     0.6320    -3.0950 ho         1 7CR       0.402000
     54 H24          5.6240    -0.0240     2.3370 ha         1 7CR       0.155000
     55 CL           6.2570    -2.2030    -2.7550 cl         1 7CR      -0.096900
@<TRIPOS>BOND
     1     1     2 1   
     2     1    23 1   
     3     1    32 1   
     4     1    33 1   
     5     2    25 1   
     6     2    34 1   
     7     2    35 1   
     8     3     4 1   
     9     3    25 1   
    10     3    36 1   
    11     3    37 1   
    12     4    26 1   
    13     4    38 1   
    14     4    39 1   
    15     5     6 1   
    16     5    26 1   
    17     5    40 1   
    18     5    41 1   
    19     6    25 1   
    20     6    42 1   
    21     6    43 1   
    22     7    29 1   
    23     7    30 1   
    24     7    44 1   
    25     7    45 1   
    26     8     9 ar  
    27     8    30 ar  
    28     8    46 1   
    29     9    10 ar  
    30     9    55 1   
    31    10    11 ar  
    32    10    47 1   
    33    11    18 1   
    34    11    31 ar  
    35    12    13 ar  
    36    12    17 ar  
    37    12    23 1   
    38    13    14 ar  
    39    13    48 1   
    40    14    22 ar  
    41    14    49 1   
    42    15    19 2   
    43    15    20 1   
    44    15    21 1   
    45    16    17 ar  
    46    16    21 1   
    47    16    22 ar  
    48    17    50 1   
    49    20    22 1   
    50    20    51 1   
    51    23    24 1   
    52    23    52 1   
    53    24    53 1   
    54    26    27 1   
    55    27    28 2   
    56    27    29 1   
    57    30    31 ar  
    58    31    54 1   
@<TRIPOS>SUBSTRUCTURE
     1 7CR         1 TEMP              0 ****  ****    0 ROOT
