@<TRIPOS>MOLECULE
7CR
   55    58     1     0     0
SMALL
No Charge or Current Charge


@<TRIPOS>ATOM
      1 C1          -3.2670     1.1580    -0.5580 c3         1 7CR      -0.116400
      2 C2          -2.4700     2.4710    -0.7300 c3         1 7CR       0.170800
      3 C3          -0.4760     3.7920    -0.1560 c6         1 7CR       0.141300
      4 C4           0.8900     3.8210     0.5810 c6         1 7CR       0.108000
      5 C5           1.2050     1.4040    -0.1110 c6         1 7CR       0.108000
      6 C6          -0.1850     1.4810    -0.8020 c6         1 7CR       0.141300
      7 C8           5.2520     1.6060     0.7510 c3         1 7CR       0.229900
      8 C10          6.3380    -0.0790    -0.8160 ca         1 7CR      -0.080500
      9 C11          6.8150    -1.3700    -1.0990 ca         1 7CR       0.119500
     10 C12          6.7350    -2.3820    -0.1290 ca         1 7CR      -0.088000
     11 C13          6.1740    -2.0990     1.1260 ca         1 7CR       0.119500
     12 C15         -5.5950     0.0730    -0.5890 ca         1 7CR      -0.114300
     13 C16         -5.1770    -1.2500    -0.9280 ca         1 7CR      -0.087000
     14 C17         -5.9590    -2.3760    -0.5800 ca         1 7CR      -0.105000
     15 C19         -9.1630    -2.2670     1.2060 c          1 7CR       0.686100
     16 C20         -7.5680    -0.8650     0.4300 ca         1 7CR       0.053100
     17 C21         -6.8200     0.2690     0.1010 ca         1 7CR      -0.073000
     18 Cl1          6.0670    -3.3650     2.3430 cl         1 7CR      -0.188500
     19 O3         -10.1700    -2.7150     1.7290 o          1 7CR      -0.504000
     20 N2          -8.1500    -2.9560     0.5930 ns         1 7CR      -0.523600
     21 O4          -8.7720    -0.9460     1.0910 os         1 7CR      -0.287200
     22 C18         -7.1500    -2.1290     0.1020 ca         1 7CR      -0.005400
     23 C           -4.7520     1.2910    -0.9680 c3         1 7CR       0.218600
     24 O           -4.8440     1.5060    -2.3790 oh         1 7CR      -0.648000
     25 N           -1.1070     2.4470    -0.1420 n3         1 7CR      -0.721600
     26 N1           1.8340     2.7220     0.2190 n          1 7CR      -0.404800
     27 C7           3.1830     2.8140     0.6020 c          1 7CR       0.647100
     28 O1           3.6880     3.8320     1.0530 o          1 7CR      -0.546000
     29 O2           3.8590     1.6440     0.4020 os         1 7CR      -0.458100
     30 C9           5.7770     0.2100     0.4440 ca         1 7CR      -0.082300
     31 C14          5.6950    -0.8100     1.4140 ca         1 7CR      -0.080500
     32 H1          -2.7930     0.3610    -1.1400 hc         1 7CR       0.057200
     33 H2          -3.2220     0.8590     0.4960 hc         1 7CR       0.057200
     34 H3          -2.4140     2.7170    -1.8000 h1         1 7CR       0.038200
     35 H4          -3.0490     3.2720    -0.2500 h1         1 7CR       0.038200
     36 H5          -1.1380     4.5320     0.3170 h1         1 7CR       0.042200
     37 H6          -0.3200     4.1230    -1.1940 h1         1 7CR       0.042200
     38 H7           1.3660     4.7940     0.3900 h1         1 7CR       0.067450
     39 H8           0.7000     3.7650     1.6620 h1         1 7CR       0.067450
     40 H9           1.0950     0.8360     0.8230 h1         1 7CR       0.067450
     41 H10          1.8720     0.8230    -0.7640 h1         1 7CR       0.067450
     42 H11         -0.0350     1.7670    -1.8540 h1         1 7CR       0.042200
     43 H12         -0.6100     0.4670    -0.8060 h1         1 7CR       0.042200
     44 H13          5.8190     2.3490     0.1740 h1         1 7CR       0.061700
     45 H14          5.3930     1.8260     1.8170 h1         1 7CR       0.061700
     46 H15          6.4020     0.6940    -1.5780 ha         1 7CR       0.137000
     47 H16          7.1040    -3.3790    -0.3490 ha         1 7CR       0.146000
     48 H17         -4.2450    -1.4110    -1.4650 ha         1 7CR       0.123000
     49 H18         -5.6460    -3.3860    -0.8340 ha         1 7CR       0.128000
     50 H19         -7.1740     1.2610     0.3700 ha         1 7CR       0.140000
     51 H20         -8.1560    -3.9680     0.5180 hn         1 7CR       0.477000
     52 H21         -5.1590     2.1640    -0.4370 h1         1 7CR       0.082700
     53 H22         -4.7890     0.6220    -2.7990 ho         1 7CR       0.441000
     54 H24          5.2580    -0.6050     2.3880 ha         1 7CR       0.137000
     55 Cl           7.5140    -1.7210    -2.6750 cl         1 7CR      -0.188500
@<TRIPOS>BOND
     1     1     2 1   
     2     1    23 1   
     3     1    32 1   
     4     1    33 1   
     5     2    25 1   
     6     2    34 1   
     7     2    35 1   
     8     3     4 1   
     9     3    25 1   
    10     3    36 1   
    11     3    37 1   
    12     4    26 1   
    13     4    38 1   
    14     4    39 1   
    15     5     6 1   
    16     5    26 1   
    17     5    40 1   
    18     5    41 1   
    19     6    25 1   
    20     6    42 1   
    21     6    43 1   
    22     7    29 1   
    23     7    30 1   
    24     7    44 1   
    25     7    45 1   
    26     8     9 ar  
    27     8    30 ar  
    28     8    46 1   
    29     9    10 ar  
    30     9    55 1   
    31    10    11 ar  
    32    10    47 1   
    33    11    18 1   
    34    11    31 ar  
    35    12    13 ar  
    36    12    17 ar  
    37    12    23 1   
    38    13    14 ar  
    39    13    48 1   
    40    14    22 ar  
    41    14    49 1   
    42    15    19 2   
    43    15    20 1   
    44    15    21 1   
    45    16    17 ar  
    46    16    21 1   
    47    16    22 ar  
    48    17    50 1   
    49    20    22 1   
    50    20    51 1   
    51    23    24 1   
    52    23    52 1   
    53    24    53 1   
    54    26    27 1   
    55    27    28 2   
    56    27    29 1   
    57    30    31 ar  
    58    31    54 1   
@<TRIPOS>SUBSTRUCTURE
     1 7CR         1 TEMP              0 ****  ****    0 ROOT
