@<TRIPOS>MOLECULE
7CS
   40    43     1     0     0
SMALL
No Charge or Current Charge


@<TRIPOS>ATOM
      1 C12         -1.6400    -0.0760    -0.4000 cc         1 7CS      -0.213400
      2 O4          -0.6320    -2.1980     0.0270 o          1 7CS      -0.504000
      3 C9          -0.5150    -1.0390    -0.3460 c          1 7CS       0.642300
      4 C11         -1.5370     1.2430    -0.8210 cd         1 7CS      -0.075100
      5 O3           0.6730    -0.5050    -0.7720 os         1 7CS      -0.461100
      6 C7           2.4580     1.1770     1.1720 c5         1 7CS      -0.101400
      7 C6           2.8240     1.6990    -0.2620 c5         1 7CS      -0.101400
      8 N1           4.3670     0.0170     0.3740 n3         1 7CS      -0.696600
      9 C5           3.7370     0.5760    -0.8510 c5         1 7CS       0.160000
     10 C4           2.9900    -0.5820    -1.5780 c6         1 7CS      -0.075400
     11 C1           3.2040    -0.1930     1.2760 c5         1 7CS       0.160000
     12 C2           2.4100    -1.4260     0.7540 c6         1 7CS      -0.075400
     13 C3           1.9040    -1.2560    -0.7050 c6         1 7CS       0.189300
     14 C13         -5.6750    -0.0490     0.4680 ca         1 7CS       0.353900
     15 N14         -5.0150     1.0390    -0.0060 nb         1 7CS      -0.678000
     16 C15         -3.6970     0.8990    -0.2490 ca         1 7CS       0.353500
     17 C16         -3.0170    -0.2820    -0.0380 ca         1 7CS      -0.091800
     18 C17         -3.6700    -1.4220     0.4500 ca         1 7CS      -0.018000
     19 C18         -5.0460    -1.2880     0.7080 ca         1 7CS      -0.189000
     20 N10         -2.8150     1.8480    -0.7290 na         1 7CS      -0.317400
     21 H81          5.1430     1.8350     1.2290 h1         1 7CS       0.031367
     22 H82          5.8820     0.3390     1.8390 h1         1 7CS       0.031367
     23 H83          6.2870     0.9300     0.2150 h1         1 7CS       0.031367
     24 H11         -0.6610     1.7850    -1.1750 h4         1 7CS       0.229000
     25 H71          2.8110     1.8740     1.9400 hc         1 7CS       0.046950
     26 H72          1.3780     1.0730     1.3200 hc         1 7CS       0.046950
     27 H61          1.9410     1.8830    -0.8830 hc         1 7CS       0.046950
     28 H62          3.3640     2.6510    -0.2020 hc         1 7CS       0.046950
     29 H5           4.4800     0.9890    -1.5490 h1         1 7CS       0.062200
     30 H41          2.5400    -0.2080    -2.5070 hc         1 7CS       0.060200
     31 H42          3.7260    -1.3380    -1.8810 hc         1 7CS       0.060200
     32 H1           3.5140    -0.4040     2.3100 h1         1 7CS       0.062200
     33 H21          3.0630    -2.3070     0.8030 hc         1 7CS       0.060200
     34 H22          1.5740    -1.6370     1.4330 hc         1 7CS       0.060200
     35 H3           1.7040    -2.2510    -1.1300 h1         1 7CS       0.063700
     36 H13         -6.7400     0.0770     0.6610 h4         1 7CS       0.020100
     37 H17         -3.1490    -2.3610     0.6220 ha         1 7CS       0.143000
     38 H18         -5.6240    -2.1260     1.0880 ha         1 7CS       0.125000
     39 HN10        -3.0560     2.8020    -0.9660 hn         1 7CS       0.365000
     40 C8           5.4730     0.8270     0.9440 c3         1 7CS       0.146100
@<TRIPOS>BOND
     1     1     3 1   
     2     1     4 2   
     3     1    17 1   
     4     2     3 2   
     5     3     5 1   
     6     4    20 1   
     7     4    24 1   
     8     5    13 1   
     9     6     7 1   
    10     6    11 1   
    11     6    25 1   
    12     6    26 1   
    13     7     9 1   
    14     7    27 1   
    15     7    28 1   
    16     8     9 1   
    17     8    11 1   
    18     8    40 1   
    19     9    10 1   
    20     9    29 1   
    21    10    13 1   
    22    10    30 1   
    23    10    31 1   
    24    11    12 1   
    25    11    32 1   
    26    12    13 1   
    27    12    33 1   
    28    12    34 1   
    29    13    35 1   
    30    14    15 ar  
    31    14    19 ar  
    32    14    36 1   
    33    15    16 ar  
    34    16    17 ar  
    35    16    20 1   
    36    17    18 ar  
    37    18    19 ar  
    38    18    37 1   
    39    19    38 1   
    40    20    39 1   
    41    21    40 1   
    42    22    40 1   
    43    23    40 1   
@<TRIPOS>SUBSTRUCTURE
     1 7CS         1 TEMP              0 ****  ****    0 ROOT
