@<TRIPOS>MOLECULE
7CS
   40    43     1     0     0
SMALL
abcg2


@<TRIPOS>ATOM
      1 C12         -1.5680    -0.0920    -0.3590 cc         1 7CS      -0.213400
      2 O4          -0.5860    -2.1990     0.0090 o          1 7CS      -0.504000
      3 C9          -0.4640    -1.0360    -0.3110 c          1 7CS       0.642300
      4 C11         -1.5070     1.2350    -0.7200 cd         1 7CS      -0.075100
      5 O3           0.6860    -0.4750    -0.6610 os         1 7CS      -0.461100
      6 C7           2.4600     1.1620     1.1740 c5         1 7CS      -0.101400
      7 C6           2.7650     1.6690    -0.2510 c5         1 7CS      -0.101400
      8 N1           4.3550    -0.0140     0.3200 n3         1 7CS      -0.696600
      9 C5           3.6770     0.5680    -0.8380 c5         1 7CS       0.160000
     10 C4           2.9070    -0.5560    -1.5280 c6         1 7CS      -0.075400
     11 C1           3.2440    -0.1680     1.2590 c5         1 7CS       0.160000
     12 C2           2.4250    -1.3780     0.8140 c6         1 7CS      -0.075400
     13 C3           1.9000    -1.2530    -0.6160 c6         1 7CS       0.189300
     14 C13         -5.6120    -0.0070     0.3620 ca         1 7CS       0.353900
     15 N14         -4.9290     1.0530    -0.0460 nb         1 7CS      -0.678000
     16 C15         -3.6380     0.8470    -0.2290 ca         1 7CS       0.353500
     17 C16         -2.9380    -0.3620    -0.0370 ca         1 7CS      -0.091800
     18 C17         -3.6850    -1.4570     0.3940 ca         1 7CS      -0.018000
     19 C18         -5.0410    -1.2620     0.5930 ca         1 7CS      -0.189000
     20 N10         -2.7350     1.7890    -0.6430 na         1 7CS      -0.317400
     21 H81          5.1170     1.8440     1.1090 h1         1 7CS       0.031367
     22 H82          5.8510     0.3610     1.7240 h1         1 7CS       0.031367
     23 H83          6.2130     0.9070     0.0900 h1         1 7CS       0.031367
     24 H11         -0.6580     1.8230    -1.0310 h4         1 7CS       0.229000
     25 H71          2.8290     1.8650     1.9220 hc         1 7CS       0.046950
     26 H72          1.3950     1.0330     1.3660 hc         1 7CS       0.046950
     27 H61          1.8720     1.8390    -0.8510 hc         1 7CS       0.046950
     28 H62          3.3010     2.6190    -0.2160 hc         1 7CS       0.046950
     29 H5           4.4100     0.9730    -1.5390 h1         1 7CS       0.062200
     30 H41          2.4020    -0.1940    -2.4270 hc         1 7CS       0.060200
     31 H42          3.6290    -1.3060    -1.8600 hc         1 7CS       0.060200
     32 H1           3.6260    -0.3570     2.2650 h1         1 7CS       0.062200
     33 H21          3.0720    -2.2580     0.8540 hc         1 7CS       0.060200
     34 H22          1.6070    -1.5660     1.5120 hc         1 7CS       0.060200
     35 H3           1.6810    -2.2460    -1.0140 h1         1 7CS       0.063700
     36 H13         -6.6750     0.1370     0.5190 h4         1 7CS       0.020100
     37 H17         -3.2300    -2.4210     0.5690 ha         1 7CS       0.143000
     38 H18         -5.6700    -2.0760     0.9260 ha         1 7CS       0.125000
     39 HN10        -2.9550     2.7490    -0.8570 hn         1 7CS       0.365000
     40 C8           5.4200     0.8240     0.8350 c3         1 7CS       0.146100
@<TRIPOS>BOND
     1     1     3 1   
     2     1     4 2   
     3     1    17 1   
     4     2     3 2   
     5     3     5 1   
     6     4    20 1   
     7     4    24 1   
     8     5    13 1   
     9     6     7 1   
    10     6    11 1   
    11     6    25 1   
    12     6    26 1   
    13     7     9 1   
    14     7    27 1   
    15     7    28 1   
    16     8     9 1   
    17     8    11 1   
    18     8    40 1   
    19     9    10 1   
    20     9    29 1   
    21    10    13 1   
    22    10    30 1   
    23    10    31 1   
    24    11    12 1   
    25    11    32 1   
    26    12    13 1   
    27    12    33 1   
    28    12    34 1   
    29    13    35 1   
    30    14    15 ar  
    31    14    19 ar  
    32    14    36 1   
    33    15    16 ar  
    34    16    17 ar  
    35    16    20 1   
    36    17    18 ar  
    37    18    19 ar  
    38    18    37 1   
    39    19    38 1   
    40    20    39 1   
    41    21    40 1   
    42    22    40 1   
    43    23    40 1   
@<TRIPOS>SUBSTRUCTURE
     1 7CS         1 TEMP              0 ****  ****    0 ROOT
