@<TRIPOS>MOLECULE
7CT
   25    26     1     0     0
SMALL
abcg2


@<TRIPOS>ATOM
      1 O1           2.9210    -0.8940    -0.5060 o          1 7CT      -0.532500
      2 C7          -0.9660     1.5480    -0.2720 ca         1 7CT      -0.180000
      3 C8          -2.1920     2.1400    -0.1480 ca         1 7CT       0.351900
      4 C9          -3.2630     0.1740     0.2020 ca         1 7CT       0.374900
      5 N1          -3.3390     1.4700     0.0890 nb         1 7CT      -0.664000
      6 N            2.2210     1.0250     0.9150 n7         1 7CT      -0.870300
      7 C2           0.3200    -1.9820    -0.0770 ca         1 7CT       0.028000
      8 C3          -0.8900    -2.6650     0.1480 ca         1 7CT      -0.144000
      9 C4          -2.0580    -1.9660     0.2400 ca         1 7CT      -0.024000
     10 O            1.8360     1.1210    -1.5370 o          1 7CT      -0.532500
     11 C5          -2.0590    -0.5610     0.1000 ca         1 7CT      -0.124000
     12 C6          -0.8560     0.1450    -0.1430 ca         1 7CT       0.068000
     13 C1           0.3430    -0.6190    -0.2220 ca         1 7CT      -0.304500
     14 C            2.2660     0.3250     2.1920 c3         1 7CT       0.183100
     15 S            1.9260     0.1630    -0.4480 sy         1 7CT       1.153600
     16 H2          -2.2820     3.2160    -0.2450 h4         1 7CT       0.025100
     17 H3          -4.1860    -0.3670     0.3900 h4         1 7CT       0.021100
     18 H4           1.7310     1.9120     0.9380 hn         1 7CT       0.485000
     19 H5           1.2350    -2.5540    -0.1340 ha         1 7CT       0.146000
     20 H6          -0.8770    -3.7410     0.2520 ha         1 7CT       0.126000
     21 H7          -2.9950    -2.4770     0.4240 ha         1 7CT       0.122000
     22 H8           1.3000    -0.0900     2.4910 h1         1 7CT       0.052033
     23 H9           3.0010    -0.4750     2.1530 h1         1 7CT       0.052033
     24 H10          2.5840     1.0380     2.9470 h1         1 7CT       0.052033
     25 H1          -0.1160     2.1780    -0.4900 ha         1 7CT       0.135000
@<TRIPOS>BOND
     1     1    15 2   
     2     2     3 ar  
     3     2    12 ar  
     4     2    25 1   
     5     3     5 ar  
     6     3    16 1   
     7     4     5 ar  
     8     4    11 ar  
     9     4    17 1   
    10     6    14 1   
    11     6    15 1   
    12     6    18 1   
    13     7     8 ar  
    14     7    13 ar  
    15     7    19 1   
    16     8     9 ar  
    17     8    20 1   
    18     9    11 ar  
    19     9    21 1   
    20    10    15 2   
    21    11    12 ar  
    22    12    13 ar  
    23    13    15 1   
    24    14    22 1   
    25    14    23 1   
    26    14    24 1   
@<TRIPOS>SUBSTRUCTURE
     1 7CT         1 TEMP              0 ****  ****    0 ROOT
