@<TRIPOS>MOLECULE
7CT
   25    26     1     0     0
SMALL
No Charge or Current Charge


@<TRIPOS>ATOM
      1 O1           3.0340    -0.8860    -0.9640 o          1 7CT      -0.532500
      2 C7          -0.9000     1.4940    -0.1130 ca         1 7CT      -0.180000
      3 C8          -2.1540     2.1000     0.0580 ca         1 7CT       0.351900
      4 C9          -3.1880     0.0590     0.3400 ca         1 7CT       0.374900
      5 N1          -3.2880     1.4040     0.2780 nb         1 7CT      -0.664000
      6 N            2.5540     0.7550     0.8600 n7         1 7CT      -0.870300
      7 C2           0.4350    -2.0380    -0.1190 ca         1 7CT       0.028000
      8 C3          -0.7550    -2.7330     0.1340 ca         1 7CT      -0.144000
      9 C4          -1.9600    -2.0370     0.2790 ca         1 7CT      -0.024000
     10 O            1.8450     1.3230    -1.4460 o          1 7CT      -0.532500
     11 C5          -1.9730    -0.6360     0.1820 ca         1 7CT      -0.124000
     12 C6          -0.7810     0.0860    -0.0660 ca         1 7CT       0.068000
     13 C1           0.4450    -0.6280    -0.2300 ca         1 7CT      -0.304500
     14 C            1.7370     0.5570     2.0740 c3         1 7CT       0.183100
     15 S            2.0490     0.1400    -0.6110 sy         1 7CT       1.153600
     16 H2          -2.2520     3.1840     0.0230 h4         1 7CT       0.025100
     17 H3          -4.1170    -0.4800     0.5280 h4         1 7CT       0.021100
     18 H4           2.6160     1.7480     0.6390 hn         1 7CT       0.485000
     19 H5           1.3530    -2.6130    -0.2320 ha         1 7CT       0.146000
     20 H6          -0.7430    -3.8180     0.2140 ha         1 7CT       0.126000
     21 H7          -2.8800    -2.5860     0.4720 ha         1 7CT       0.122000
     22 H8           0.7520     1.0310     1.9870 h1         1 7CT       0.052033
     23 H9           1.5920    -0.5110     2.2850 h1         1 7CT       0.052033
     24 H10          2.2370     1.0010     2.9460 h1         1 7CT       0.052033
     25 H1          -0.0530     2.1490    -0.2590 ha         1 7CT       0.135000
@<TRIPOS>BOND
     1     1    15 2   
     2     2     3 ar  
     3     2    12 ar  
     4     2    25 1   
     5     3     5 ar  
     6     3    16 1   
     7     4     5 ar  
     8     4    11 ar  
     9     4    17 1   
    10     6    14 1   
    11     6    15 1   
    12     6    18 1   
    13     7     8 ar  
    14     7    13 ar  
    15     7    19 1   
    16     8     9 ar  
    17     8    20 1   
    18     9    11 ar  
    19     9    21 1   
    20    10    15 2   
    21    11    12 ar  
    22    12    13 ar  
    23    13    15 1   
    24    14    22 1   
    25    14    23 1   
    26    14    24 1   
@<TRIPOS>SUBSTRUCTURE
     1 7CT         1 TEMP              0 ****  ****    0 ROOT
