@<TRIPOS>MOLECULE
7CU
   41    43     1     0     0
SMALL
bcc


@<TRIPOS>ATOM
      1 C           -0.1400    -2.2060    -0.1180 ca         1 7CU       0.183500
      2 N           -1.4090    -2.5620    -0.3310 nb         1 7CU      -0.618000
      3 O            1.8560    -3.2190     0.7030 o          1 7CU      -0.600100
      4 C1           0.1730    -0.8420     0.0010 ca         1 7CU       0.512800
      5 N2          -0.8060     0.0590     0.0540 nb         1 7CU      -0.786000
      6 C3          -2.0730    -0.3190    -0.0580 ca         1 7CU       0.604900
      7 C4          -2.3680    -1.6760    -0.3320 ca         1 7CU       0.220900
      8 C5           0.8090    -3.3440     0.0830 c          1 7CU       0.592600
      9 N6          -3.0250     0.6180     0.0750 nu         1 7CU      -0.873900
     10 C7          -4.4400     0.3240     0.1500 c3         1 7CU       0.182800
     11 C8          -5.2540     1.6070     0.3340 c3         1 7CU       0.152500
     12 N9          -5.1430     2.5580    -0.7610 n8         1 7CU      -0.885800
     13 C10          1.5050    -0.2350     0.0010 cc         1 7CU      -0.155900
     14 C11         -6.7170     1.2550     0.5550 c3         1 7CU      -0.088100
     15 N12          1.6080     1.0780     0.3930 na         1 7CU      -0.150400
     16 C13          2.8810     1.5150     0.2180 ca         1 7CU      -0.031200
     17 C14          3.6270     0.4390    -0.3140 ca         1 7CU      -0.120800
     18 C15          2.7340    -0.6600    -0.4420 cd         1 7CU      -0.103200
     19 C16          3.4560     2.7610     0.4770 ca         1 7CU      -0.154000
     20 C17          4.7970     2.9110     0.1870 ca         1 7CU      -0.101000
     21 C18          5.5580     1.8530    -0.3460 ca         1 7CU      -0.168000
     22 C19          4.9870     0.6240    -0.5990 ca         1 7CU      -0.064000
     23 N20          0.4000    -4.5080    -0.4430 nt         1 7CU      -0.655000
     24 H1          -3.3760    -2.0200    -0.5250 h4         1 7CU       0.032100
     25 H2          -2.7040     1.5130     0.4150 hn         1 7CU       0.443800
     26 H3          -4.7680    -0.1700    -0.7710 h1         1 7CU       0.049200
     27 H4          -4.6430    -0.3650     0.9780 h1         1 7CU       0.049200
     28 H5          -4.8840     2.1060     1.2380 h1         1 7CU       0.063700
     29 H6          -4.1780     2.8210    -0.9170 hn         1 7CU       0.345800
     30 H7          -5.4580     2.1250    -1.6210 hn         1 7CU       0.345800
     31 H9          -6.8400     0.5830     1.4050 hc         1 7CU       0.045033
     32 H10         -7.3020     2.1540     0.7450 hc         1 7CU       0.045033
     33 H11         -7.1360     0.7600    -0.3250 hc         1 7CU       0.045033
     34 H12          0.8220     1.6290     0.6980 hn         1 7CU       0.312700
     35 H13          2.9800    -1.6330    -0.8280 ha         1 7CU       0.168000
     36 H14          2.8750     3.5780     0.8850 ha         1 7CU       0.131000
     37 H15          5.2740     3.8650     0.3740 ha         1 7CU       0.126000
     38 H16          6.6060     2.0140    -0.5600 ha         1 7CU       0.128000
     39 H17          5.5780    -0.1850    -1.0090 ha         1 7CU       0.133000
     40 H18          0.9090    -5.3520    -0.2380 hn         1 7CU       0.321000
     41 H19         -0.5210    -4.5940    -0.8380 hn         1 7CU       0.321000
@<TRIPOS>BOND
     1     1     2 ar  
     2     1     4 ar  
     3     1     8 1   
     4     2     7 ar  
     5     3     8 2   
     6     4     5 ar  
     7     4    13 1   
     8     5     6 ar  
     9     6     7 ar  
    10     6     9 1   
    11     7    24 1   
    12     8    23 1   
    13     9    10 1   
    14     9    25 1   
    15    10    11 1   
    16    10    26 1   
    17    10    27 1   
    18    11    12 1   
    19    11    14 1   
    20    11    28 1   
    21    12    29 1   
    22    12    30 1   
    23    13    15 1   
    24    13    18 2   
    25    14    31 1   
    26    14    32 1   
    27    14    33 1   
    28    15    16 1   
    29    15    34 1   
    30    16    17 ar  
    31    16    19 ar  
    32    17    18 1   
    33    17    22 ar  
    34    18    35 1   
    35    19    20 ar  
    36    19    36 1   
    37    20    21 ar  
    38    20    37 1   
    39    21    22 ar  
    40    21    38 1   
    41    22    39 1   
    42    23    40 1   
    43    23    41 1   
@<TRIPOS>SUBSTRUCTURE
     1 7CU         1 TEMP              0 ****  ****    0 ROOT
