@<TRIPOS>MOLECULE
7CU
   41    43     1     0     0
SMALL
No Charge or Current Charge


@<TRIPOS>ATOM
      1 C           -0.1340    -2.2410    -0.0480 ca         1 7CU       0.183500
      2 N           -1.4000    -2.7520    -0.2500 nb         1 7CU      -0.618000
      3 O            2.0630    -3.0590     0.6380 o          1 7CU      -0.600100
      4 C1           0.0830    -0.8240     0.1250 ca         1 7CU       0.512800
      5 N2          -0.9570     0.0640     0.1720 nb         1 7CU      -0.786000
      6 C3          -2.1740    -0.4560    -0.0040 ca         1 7CU       0.604900
      7 C4          -2.4120    -1.8440    -0.2340 ca         1 7CU       0.220900
      8 C5           1.0030    -3.2560     0.0670 c          1 7CU       0.525600
      9 N6          -3.1240     0.5360     0.0430 nu         1 7CU      -0.929100
     10 C7          -4.5660     0.3550     0.3140 c3         1 7CU       0.182800
     11 C8          -5.3500     1.6990     0.1900 c3         1 7CU       0.152500
     12 N9          -5.1050     2.3480    -1.1210 n8         1 7CU      -0.996200
     13 C10          1.4050    -0.1770     0.2420 cc         1 7CU      -0.155900
     14 C11         -6.8640     1.5210     0.4210 c3         1 7CU      -0.088100
     15 N12          1.7120     1.0620     0.8500 na         1 7CU      -0.200700
     16 C13          2.9910     1.4560     0.4890 ca         1 7CU      -0.031200
     17 C14          3.5090     0.5560    -0.4030 ca         1 7CU      -0.120800
     18 C15          2.4900    -0.4490    -0.5880 cd         1 7CU      -0.153200
     19 C16          3.7160     2.5850     0.8920 ca         1 7CU      -0.136000
     20 C17          5.0070     2.7680     0.3490 ca         1 7CU      -0.083000
     21 C18          5.5360     1.8340    -0.5770 ca         1 7CU      -0.150000
     22 C19          4.7800     0.7070    -0.9690 ca         1 7CU      -0.046000
     23 N20          0.7770    -4.4910    -0.4510 nt         1 7CU      -0.588000
     24 H1          -3.4190    -2.2280    -0.3900 h4         1 7CU       0.032100
     25 H2          -2.7010     1.4220     0.3110 hn         1 7CU       0.499000
     26 H3          -4.9900    -0.3680    -0.3980 h1         1 7CU       0.049200
     27 H4          -4.7090    -0.0530     1.3250 h1         1 7CU       0.049200
     28 H5          -4.9630     2.3720     0.9700 h1         1 7CU       0.063700
     29 H6          -4.1400     2.1180    -1.3900 hn         1 7CU       0.401000
     30 H7          -5.6570     1.8620    -1.8360 hn         1 7CU       0.401000
     31 H9          -7.0520     1.0970     1.4150 hc         1 7CU       0.045033
     32 H10         -7.3820     2.4850     0.3630 hc         1 7CU       0.045033
     33 H11         -7.3010     0.8470    -0.3260 hc         1 7CU       0.045033
     34 H12          1.0660     1.6110     1.4080 hn         1 7CU       0.363000
     35 H13          2.5420    -1.2550    -1.3160 ha         1 7CU       0.218000
     36 H14          3.2980     3.3000     1.5970 ha         1 7CU       0.113000
     37 H15          5.5980     3.6340     0.6410 ha         1 7CU       0.108000
     38 H16          6.5300     1.9870    -0.9910 ha         1 7CU       0.110000
     39 H17          5.1720    -0.0160    -1.6810 ha         1 7CU       0.115000
     40 H18          1.4860    -5.2050    -0.3720 hn         1 7CU       0.321000
     41 H19         -0.1150    -4.6890    -0.8820 hn         1 7CU       0.321000
@<TRIPOS>BOND
     1     1     2 ar  
     2     1     4 ar  
     3     1     8 1   
     4     2     7 ar  
     5     3     8 2   
     6     4     5 ar  
     7     4    13 1   
     8     5     6 ar  
     9     6     7 ar  
    10     6     9 1   
    11     7    24 1   
    12     8    23 1   
    13     9    10 1   
    14     9    25 1   
    15    10    11 1   
    16    10    26 1   
    17    10    27 1   
    18    11    12 1   
    19    11    14 1   
    20    11    28 1   
    21    12    29 1   
    22    12    30 1   
    23    13    15 1   
    24    13    18 2   
    25    14    31 1   
    26    14    32 1   
    27    14    33 1   
    28    15    16 1   
    29    15    34 1   
    30    16    17 ar  
    31    16    19 ar  
    32    17    18 1   
    33    17    22 ar  
    34    18    35 1   
    35    19    20 ar  
    36    19    36 1   
    37    20    21 ar  
    38    20    37 1   
    39    21    22 ar  
    40    21    38 1   
    41    22    39 1   
    42    23    40 1   
    43    23    41 1   
@<TRIPOS>SUBSTRUCTURE
     1 7CU         1 TEMP              0 ****  ****    0 ROOT
