@<TRIPOS>MOLECULE
7CV
   29    29     1     0     0
SMALL
No Charge or Current Charge


@<TRIPOS>ATOM
      1 C1           1.3370     1.0570     0.6980 c6         1 7CV       0.356300
      2 C2           1.2440    -0.4750     0.3710 c6         1 7CV       0.145300
      3 C3          -0.2300    -0.9570     0.5330 c6         1 7CV       0.183300
      4 C4          -1.1820    -0.0860    -0.3690 c6         1 7CV       0.122300
      5 C5          -0.9740     1.4270    -0.0190 c6         1 7CV       0.141300
      6 C6          -1.7470     2.3840    -0.9640 c3         1 7CV      -0.091100
      7 O2           1.7350    -0.7800    -0.9680 os         1 7CV      -0.429000
      8 O3          -0.2990    -2.3950     0.2910 os         1 7CV      -0.444000
      9 O4          -2.5770    -0.4430    -0.2190 oh         1 7CV      -0.720000
     10 O5           0.4220     1.8010    -0.1270 os         1 7CV      -0.472000
     11 C24          3.1290    -0.5410    -1.2350 c3         1 7CV       0.144900
     12 C27         -1.4900    -3.1060     0.6780 c3         1 7CV       0.150900
     13 O1           1.0030     1.3460     2.0540 oh         1 7CV      -0.741000
     14 H1           2.3620     1.4050     0.5010 h2         1 7CV       0.066700
     15 H2           1.8650    -1.0210     1.0950 h1         1 7CV       0.062700
     16 H3          -0.5150    -0.7880     1.5820 h1         1 7CV       0.064700
     17 H4          -0.8730    -0.2370    -1.4150 h1         1 7CV       0.066700
     18 H5          -1.3190     1.6140     1.0080 h1         1 7CV       0.051700
     19 H6          -2.8310     2.2530    -0.8680 hc         1 7CV       0.044033
     20 H7          -1.5240     3.4310    -0.7280 hc         1 7CV       0.044033
     21 H8          -1.4770     2.2120    -2.0130 hc         1 7CV       0.044033
     22 H9          -3.0560    -0.0860    -1.0020 ho         1 7CV       0.506000
     23 H10          3.3650     0.5300    -1.1900 h1         1 7CV       0.029700
     24 H11          3.7620    -1.0700    -0.5110 h1         1 7CV       0.029700
     25 H12          3.3880    -0.8990    -2.2390 h1         1 7CV       0.029700
     26 H13         -1.8110    -2.8170     1.6880 h1         1 7CV       0.031367
     27 H14         -2.3120    -2.9210    -0.0230 h1         1 7CV       0.031367
     28 H15         -1.3000    -4.1860     0.6790 h1         1 7CV       0.031367
     29 H16          0.9860     2.3280     2.1020 ho         1 7CV       0.518000
@<TRIPOS>BOND
     1     1     2 1   
     2     1    10 1   
     3     1    13 1   
     4     1    14 1   
     5     2     3 1   
     6     2     7 1   
     7     2    15 1   
     8     3     4 1   
     9     3     8 1   
    10     3    16 1   
    11     4     5 1   
    12     4     9 1   
    13     4    17 1   
    14     5     6 1   
    15     5    10 1   
    16     5    18 1   
    17     6    19 1   
    18     6    20 1   
    19     6    21 1   
    20     7    11 1   
    21     8    12 1   
    22     9    22 1   
    23    11    23 1   
    24    11    24 1   
    25    11    25 1   
    26    12    26 1   
    27    12    27 1   
    28    12    28 1   
    29    13    29 1   
@<TRIPOS>SUBSTRUCTURE
     1 7CV         1 TEMP              0 ****  ****    0 ROOT
