@<TRIPOS>MOLECULE
7CV
   29    29     1     0     0
SMALL
bcc


@<TRIPOS>ATOM
      1 C1           1.2130     1.1130     0.6670 c6         1 7CV       0.309900
      2 C2           1.1420    -0.3760     0.3180 c6         1 7CV       0.122100
      3 C3          -0.3020    -0.8660     0.3870 c6         1 7CV       0.160100
      4 C4          -1.1940     0.0110    -0.4840 c6         1 7CV       0.099100
      5 C5          -1.0180     1.4840    -0.0900 c6         1 7CV       0.118100
      6 C6          -1.7780     2.4250    -1.0040 c3         1 7CV      -0.091100
      7 O2           1.6170    -0.5870    -0.9870 os         1 7CV      -0.382600
      8 O3          -0.3280    -2.2150    -0.0090 os         1 7CV      -0.397600
      9 O4          -2.5310    -0.3930    -0.3000 oh         1 7CV      -0.597800
     10 O5           0.3520     1.8590    -0.1470 os         1 7CV      -0.425600
     11 C24          3.0120    -0.7430    -1.0750 c3         1 7CV       0.121700
     12 C27         -1.1780    -3.0500     0.7420 c3         1 7CV       0.127700
     13 O1           0.9240     1.2370     2.0250 oh         1 7CV      -0.618800
     14 H1           2.2120     1.5060     0.4420 h2         1 7CV       0.066700
     15 H2           1.7450    -0.9400     1.0440 h1         1 7CV       0.062700
     16 H3          -0.6360    -0.7660     1.4310 h1         1 7CV       0.064700
     17 H4          -0.8910    -0.1100    -1.5340 h1         1 7CV       0.066700
     18 H5          -1.3990     1.6080     0.9330 h1         1 7CV       0.051700
     19 H6          -2.8520     2.2580    -0.9250 hc         1 7CV       0.044033
     20 H7          -1.5960     3.4630    -0.7260 hc         1 7CV       0.044033
     21 H8          -1.4870     2.2930    -2.0470 hc         1 7CV       0.044033
     22 H9          -3.0460    -0.1060    -1.0600 ho         1 7CV       0.407000
     23 H10          3.5630     0.1530    -0.7720 h1         1 7CV       0.029700
     24 H11          3.3650    -1.5780    -0.4600 h1         1 7CV       0.029700
     25 H12          3.2560    -0.9530    -2.1160 h1         1 7CV       0.029700
     26 H13         -1.0050    -2.9470     1.8190 h1         1 7CV       0.031367
     27 H14         -2.2360    -2.8600     0.5490 h1         1 7CV       0.031367
     28 H15         -0.9560    -4.0790     0.4620 h1         1 7CV       0.031367
     29 H16          1.1140     2.1390     2.3060 ho         1 7CV       0.419000
@<TRIPOS>BOND
     1     1     2 1   
     2     1    10 1   
     3     1    13 1   
     4     1    14 1   
     5     2     3 1   
     6     2     7 1   
     7     2    15 1   
     8     3     4 1   
     9     3     8 1   
    10     3    16 1   
    11     4     5 1   
    12     4     9 1   
    13     4    17 1   
    14     5     6 1   
    15     5    10 1   
    16     5    18 1   
    17     6    19 1   
    18     6    20 1   
    19     6    21 1   
    20     7    11 1   
    21     8    12 1   
    22     9    22 1   
    23    11    23 1   
    24    11    24 1   
    25    11    25 1   
    26    12    26 1   
    27    12    27 1   
    28    12    28 1   
    29    13    29 1   
@<TRIPOS>SUBSTRUCTURE
     1 7CV         1 TEMP              0 ****  ****    0 ROOT
