@<TRIPOS>MOLECULE
7CW
   93    97     1     0     0
SMALL
No Charge or Current Charge


@<TRIPOS>ATOM
      1 C1          -3.1630     1.9690     2.6530 c3         1 7CW      -0.088100
      2 C2          -2.7020     0.7400     1.8280 c3         1 7CW      -0.047700
      3 C3          -1.3090     1.0100     1.1710 c3         1 7CW      -0.072400
      4 C4          -0.1350     1.2630     2.1550 c3         1 7CW      -0.161400
      5 C5           1.2150     1.2350     1.4320 c          1 7CW       0.595100
      6 O1           1.5980     2.1500     0.7170 o          1 7CW      -0.587100
      7 N1           1.9820     0.1150     1.6710 ns         1 7CW      -0.511900
      8 C6           3.3190    -0.1230     1.1120 c3         1 7CW       0.075000
      9 C7           4.4030     0.7820     1.7420 c3         1 7CW       0.094000
     10 N2           5.7540     0.4660     1.2650 ns         1 7CW      -0.501900
     11 C8           6.2130     0.7050     0.0020 c          1 7CW       0.635100
     12 O2           5.5730     1.2290    -0.8950 o          1 7CW      -0.525000
     13 O3           7.4990     0.2700    -0.0860 os         1 7CW      -0.466100
     14 C9           8.1710     0.4350    -1.3450 c3         1 7CW       0.229900
     15 C10          9.5820    -0.1200    -1.2080 ca         1 7CW      -0.079300
     16 C11          9.8450    -1.4750    -1.4930 ca         1 7CW      -0.083000
     17 C12         11.1470    -1.9860    -1.3620 ca         1 7CW       0.121000
     18 Cl1         11.4650    -3.6790    -1.7200 cl         1 7CW      -0.189500
     19 C13         12.1960    -1.1520    -0.9440 ca         1 7CW      -0.090000
     20 C14         11.9380     0.1980    -0.6560 ca         1 7CW       0.121000
     21 Cl2         13.2480     1.2460    -0.1280 cl         1 7CW      -0.189500
     22 C15         10.6380     0.7140    -0.7860 ca         1 7CW      -0.083000
     23 C16         -3.7680     0.3020     0.7220 c5         1 7CW      -0.054700
     24 C17         -3.3500    -1.0060    -0.0420 c5         1 7CW      -0.080400
     25 C18         -4.6720    -1.6630    -0.5370 c5         1 7CW      -0.062400
     26 C19         -5.7630    -0.6080    -0.2100 c5         1 7CW      -0.054700
     27 C20         -7.2580    -1.0820    -0.2270 c6         1 7CW      -0.037700
     28 C21         -7.7320    -1.6440    -1.6100 c6         1 7CW       0.175300
     29 O4          -7.0660    -2.8700    -1.9330 oh         1 7CW      -0.663000
     30 C22         -9.2600    -1.9280    -1.6270 c6         1 7CW      -0.107400
     31 C23        -10.1310    -0.6970    -1.2380 c6         1 7CW      -0.046700
     32 C24        -10.0660     0.3980    -2.3530 c6         1 7CW      -0.072400
     33 C25        -10.9400     1.6280    -2.0110 c6         1 7CW       0.171300
     34 O5         -10.7950     2.6280    -3.0230 oh         1 7CW      -0.660000
     35 C26        -10.5460     2.2100    -0.6350 c6         1 7CW      -0.112400
     36 C27        -10.6490     1.1220     0.4620 c6         1 7CW      -0.066400
     37 C28         -9.7580    -0.1420     0.1890 c6         1 7CW      -0.034000
     38 C29        -10.1260    -1.1980     1.2880 c3         1 7CW      -0.086100
     39 C30         -8.1820     0.1680     0.2180 c6         1 7CW      -0.047700
     40 C31         -7.7130     0.8360     1.5770 c6         1 7CW      -0.070400
     41 C32         -6.2060     1.1990     1.5430 c6         1 7CW      -0.064400
     42 C33         -5.2720    -0.0270     1.1680 c5         1 7CW      -0.038000
     43 C34         -5.3120    -1.0440     2.3600 c3         1 7CW      -0.078100
     44 H1          -2.3610     2.3690     3.2810 hc         1 7CW       0.034700
     45 H2          -3.5180     2.7750     1.9990 hc         1 7CW       0.034700
     46 H3          -3.9630     1.6900     3.3440 hc         1 7CW       0.034700
     47 H4          -2.5230    -0.0620     2.5760 hc         1 7CW       0.043700
     48 H5          -1.0290     0.1450     0.5600 hc         1 7CW       0.049200
     49 H6          -1.3900     1.8590     0.4800 hc         1 7CW       0.049200
     50 H7          -0.2500     2.2530     2.6100 hc         1 7CW       0.060200
     51 H8          -0.1560     0.4890     2.9320 hc         1 7CW       0.060200
     52 H9           1.5800    -0.5890     2.2800 hn         1 7CW       0.309500
     53 H10          3.5850    -1.1740     1.2850 h1         1 7CW       0.063200
     54 H11          3.2850     0.0420     0.0270 h1         1 7CW       0.063200
     55 H12          4.1840     1.8330     1.5140 h1         1 7CW       0.063700
     56 H13          4.3830     0.6620     2.8330 h1         1 7CW       0.063700
     57 H14          6.4110     0.0270     1.8980 hn         1 7CW       0.326500
     58 H15          7.6410    -0.1010    -2.1440 h1         1 7CW       0.063200
     59 H16          8.2190     1.4960    -1.6260 h1         1 7CW       0.063200
     60 H17          9.0410    -2.1330    -1.8140 ha         1 7CW       0.137500
     61 H18         13.2010    -1.5490    -0.8420 ha         1 7CW       0.146000
     62 H19         10.4510     1.7600    -0.5560 ha         1 7CW       0.137500
     63 H20         -3.7930     1.1330     0.0060 hc         1 7CW       0.046700
     64 H21         -2.6860    -0.7750    -0.8830 hc         1 7CW       0.036200
     65 H22         -2.8010    -1.6980     0.6070 hc         1 7CW       0.036200
     66 H23         -4.6230    -1.8840    -1.6090 hc         1 7CW       0.049700
     67 H24         -4.8630    -2.6130    -0.0260 hc         1 7CW       0.049700
     68 H25         -5.7260     0.1760    -0.9760 hc         1 7CW       0.038700
     69 H26         -7.3690    -1.8850     0.5130 hc         1 7CW       0.063700
     70 H27         -7.5050    -0.8940    -2.3820 h1         1 7CW       0.030700
     71 H28         -7.3870    -3.1380    -2.8200 ho         1 7CW       0.439000
     72 H29         -9.5540    -2.2720    -2.6280 hc         1 7CW       0.046200
     73 H30         -9.4850    -2.7680    -0.9570 hc         1 7CW       0.046200
     74 H31        -11.1740    -1.0430    -1.2010 hc         1 7CW       0.046700
     75 H32         -9.0350     0.7270    -2.5300 hc         1 7CW       0.052700
     76 H33        -10.4120    -0.0290    -3.3040 hc         1 7CW       0.052700
     77 H34        -11.9890     1.3020    -1.9620 h1         1 7CW       0.025700
     78 H35        -11.3940     3.3660    -2.7740 ho         1 7CW       0.441000
     79 H36         -9.5310     2.6280    -0.6680 hc         1 7CW       0.047200
     80 H37        -11.2140     3.0430    -0.3810 hc         1 7CW       0.047200
     81 H38        -10.4290     1.5610     1.4430 hc         1 7CW       0.041200
     82 H39        -11.7010     0.8090     0.5290 hc         1 7CW       0.041200
     83 H40        -11.1700    -1.5220     1.1930 hc         1 7CW       0.034700
     84 H41         -9.5070    -2.1000     1.2410 hc         1 7CW       0.034700
     85 H42        -10.0150    -0.7860     2.2980 hc         1 7CW       0.034700
     86 H43         -7.9970     0.9380    -0.5400 hc         1 7CW       0.048700
     87 H44         -8.2710     1.7600     1.7690 hc         1 7CW       0.039200
     88 H45         -7.9160     0.1720     2.4270 hc         1 7CW       0.039200
     89 H46         -6.0510     2.0060     0.8140 hc         1 7CW       0.040700
     90 H47         -5.9400     1.6190     2.5180 hc         1 7CW       0.040700
     91 H48         -6.3130    -1.4570     2.5240 hc         1 7CW       0.032367
     92 H49         -4.6390    -1.8960     2.2170 hc         1 7CW       0.032367
     93 H50         -5.0080    -0.5610     3.2950 hc         1 7CW       0.032367
@<TRIPOS>BOND
     1     1     2 1   
     2     1    44 1   
     3     1    45 1   
     4     1    46 1   
     5     2     3 1   
     6     2    23 1   
     7     2    47 1   
     8     3     4 1   
     9     3    48 1   
    10     3    49 1   
    11     4     5 1   
    12     4    50 1   
    13     4    51 1   
    14     5     6 2   
    15     5     7 1   
    16     7     8 1   
    17     7    52 1   
    18     8     9 1   
    19     8    53 1   
    20     8    54 1   
    21     9    10 1   
    22     9    55 1   
    23     9    56 1   
    24    10    11 1   
    25    10    57 1   
    26    11    12 2   
    27    11    13 1   
    28    13    14 1   
    29    14    15 1   
    30    14    58 1   
    31    14    59 1   
    32    15    16 ar  
    33    15    22 ar  
    34    16    17 ar  
    35    16    60 1   
    36    17    18 1   
    37    17    19 ar  
    38    19    20 ar  
    39    19    61 1   
    40    20    21 1   
    41    20    22 ar  
    42    22    62 1   
    43    23    24 1   
    44    23    42 1   
    45    23    63 1   
    46    24    25 1   
    47    24    64 1   
    48    24    65 1   
    49    25    26 1   
    50    25    66 1   
    51    25    67 1   
    52    26    27 1   
    53    26    42 1   
    54    26    68 1   
    55    27    28 1   
    56    27    39 1   
    57    27    69 1   
    58    28    29 1   
    59    28    30 1   
    60    28    70 1   
    61    29    71 1   
    62    30    31 1   
    63    30    72 1   
    64    30    73 1   
    65    31    32 1   
    66    31    37 1   
    67    31    74 1   
    68    32    33 1   
    69    32    75 1   
    70    32    76 1   
    71    33    34 1   
    72    33    35 1   
    73    33    77 1   
    74    34    78 1   
    75    35    36 1   
    76    35    79 1   
    77    35    80 1   
    78    36    37 1   
    79    36    81 1   
    80    36    82 1   
    81    37    38 1   
    82    37    39 1   
    83    38    83 1   
    84    38    84 1   
    85    38    85 1   
    86    39    40 1   
    87    39    86 1   
    88    40    41 1   
    89    40    87 1   
    90    40    88 1   
    91    41    42 1   
    92    41    89 1   
    93    41    90 1   
    94    42    43 1   
    95    43    91 1   
    96    43    92 1   
    97    43    93 1   
@<TRIPOS>SUBSTRUCTURE
     1 7CW         1 TEMP              0 ****  ****    0 ROOT
