@<TRIPOS>MOLECULE
7CW
   93    97     1     0     0
SMALL
abcg2


@<TRIPOS>ATOM
      1 C1          -3.0690     2.2360     2.3050 c3         1 7CW      -0.088100
      2 C2          -2.7350     0.8360     1.7930 c3         1 7CW      -0.047700
      3 C3          -1.3290     0.8460     1.1710 c3         1 7CW      -0.072400
      4 C4          -0.2090     0.8840     2.2150 c3         1 7CW      -0.161400
      5 C5           1.1430     1.0260     1.5530 c          1 7CW       0.595100
      6 O1           1.6240     2.1180     1.2810 o          1 7CW      -0.587100
      7 N1           1.7460    -0.1350     1.2360 ns         1 7CW      -0.511900
      8 C6           3.0360    -0.2220     0.5960 c3         1 7CW       0.075000
      9 C7           4.1770    -0.2230     1.6140 c3         1 7CW       0.094000
     10 N2           5.4680    -0.4140     0.9980 ns         1 7CW      -0.501900
     11 C8           6.1860     0.6010     0.4900 c          1 7CW       0.635100
     12 O2           5.8780     1.7740     0.5340 o          1 7CW      -0.525000
     13 O3           7.3160     0.1470    -0.0720 os         1 7CW      -0.466100
     14 C9           8.2200     1.1230    -0.5850 c3         1 7CW       0.229900
     15 C10          9.4790     0.4000    -0.9630 ca         1 7CW      -0.079300
     16 C11          9.9340     0.4280    -2.2740 ca         1 7CW      -0.083000
     17 C12         11.1090    -0.2330    -2.6010 ca         1 7CW       0.121000
     18 CL1         11.6730    -0.1960    -4.2360 cl         1 7CW      -0.189500
     19 C13         11.8390    -0.9290    -1.6550 ca         1 7CW      -0.090000
     20 C14         11.3630    -0.9460    -0.3520 ca         1 7CW       0.121000
     21 CL2         12.2580    -1.8080     0.8510 cl         1 7CW      -0.189500
     22 C15         10.1990    -0.2920     0.0070 ca         1 7CW      -0.083000
     23 C16         -3.7500     0.2770     0.7860 c5         1 7CW      -0.054700
     24 C17         -3.4270    -1.1880     0.3970 c5         1 7CW      -0.080400
     25 C18         -4.7690    -1.8990     0.1400 c5         1 7CW      -0.062400
     26 C19         -5.7870    -0.7600     0.1200 c5         1 7CW      -0.054700
     27 C20         -7.2860    -1.0490     0.2500 c6         1 7CW      -0.037700
     28 C21         -7.7810    -2.0670    -0.7770 c6         1 7CW       0.175300
     29 O4          -7.2030    -3.3290    -0.4920 oh         1 7CW      -0.663000
     30 C22         -9.3010    -2.1960    -0.7810 c6         1 7CW      -0.107400
     31 C23        -10.0240    -0.8650    -0.9480 c6         1 7CW      -0.046700
     32 C24         -9.8710    -0.3180    -2.3730 c6         1 7CW      -0.072400
     33 C25        -10.5960     1.0020    -2.5590 c6         1 7CW       0.171300
     34 O5         -10.3910     1.4320    -3.8910 oh         1 7CW      -0.660000
     35 C26        -10.1110     2.0170    -1.5330 c6         1 7CW      -0.112400
     36 C27        -10.3140     1.4660    -0.1280 c6         1 7CW      -0.066400
     37 C28         -9.5820     0.1400     0.1380 c6         1 7CW      -0.034000
     38 C29        -10.0440    -0.3510     1.5160 c3         1 7CW      -0.086100
     39 C30         -8.0400     0.2950     0.0850 c6         1 7CW      -0.047700
     40 C31         -7.5160     1.3470     1.0660 c6         1 7CW      -0.070400
     41 C32         -6.0040     1.5410     1.0090 c6         1 7CW      -0.064400
     42 C33         -5.2470     0.2260     1.1790 c5         1 7CW      -0.038000
     43 C34         -5.4110    -0.3210     2.5990 c3         1 7CW      -0.078100
     44 H1          -2.2630     2.6330     2.9240 hc         1 7CW       0.034700
     45 H2          -3.2180     2.9330     1.4770 hc         1 7CW       0.034700
     46 H3          -3.9680     2.2530     2.9190 hc         1 7CW       0.034700
     47 H4          -2.7130     0.1530     2.6520 hc         1 7CW       0.043700
     48 H5          -1.1800    -0.0350     0.5450 hc         1 7CW       0.049200
     49 H6          -1.2420     1.7100     0.5030 hc         1 7CW       0.049200
     50 H7          -0.3380     1.7280     2.8930 hc         1 7CW       0.060200
     51 H8          -0.2530    -0.0260     2.8200 hc         1 7CW       0.060200
     52 H9           1.3150    -0.9950     1.5300 hn         1 7CW       0.309500
     53 H10          3.0640    -1.1410     0.0100 h1         1 7CW       0.063200
     54 H11          3.1550     0.6120    -0.0950 h1         1 7CW       0.063200
     55 H12          4.1740     0.7120     2.1750 h1         1 7CW       0.063700
     56 H13          4.0290    -1.0310     2.3310 h1         1 7CW       0.063700
     57 H14          5.7970    -1.3570     0.8640 hn         1 7CW       0.326500
     58 H15          7.7930     1.6280    -1.4530 h1         1 7CW       0.063200
     59 H16          8.4330     1.8810     0.1730 h1         1 7CW       0.063200
     60 H17          9.3790     0.9620    -3.0340 ha         1 7CW       0.137500
     61 H18         12.7530    -1.4420    -1.9220 ha         1 7CW       0.146000
     62 H19          9.8580    -0.3140     1.0340 ha         1 7CW       0.137500
     63 H20         -3.6940     0.9000    -0.1190 hc         1 7CW       0.046700
     64 H21         -2.7840    -1.2270    -0.4830 hc         1 7CW       0.036200
     65 H22         -2.8720    -1.6800     1.2010 hc         1 7CW       0.036200
     66 H23         -4.7600    -2.4650    -0.7890 hc         1 7CW       0.049700
     67 H24         -4.9890    -2.6130     0.9360 hc         1 7CW       0.049700
     68 H25         -5.6650    -0.2530    -0.8510 hc         1 7CW       0.038700
     69 H26         -7.4950    -1.4540     1.2480 hc         1 7CW       0.063700
     70 H27         -7.4490    -1.7210    -1.7690 h1         1 7CW       0.030700
     71 H28         -7.5020    -3.9470    -1.1660 ho         1 7CW       0.439000
     72 H29         -9.6010    -2.8820    -1.5820 hc         1 7CW       0.046200
     73 H30         -9.6080    -2.6680     0.1560 hc         1 7CW       0.046200
     74 H31        -11.0970    -1.0490    -0.7940 hc         1 7CW       0.046700
     75 H32         -8.8170    -0.1800    -2.6340 hc         1 7CW       0.052700
     76 H33        -10.2670    -1.0590    -3.0750 hc         1 7CW       0.052700
     77 H34        -11.6700     0.8300    -2.3750 h1         1 7CW       0.025700
     78 H35        -10.8710     2.2570    -4.0140 ho         1 7CW       0.441000
     79 H36         -9.0560     2.2480    -1.7150 hc         1 7CW       0.047200
     80 H37        -10.6650     2.9550    -1.6440 hc         1 7CW       0.047200
     81 H38        -10.0470     2.2170     0.6190 hc         1 7CW       0.041200
     82 H39        -11.3860     1.2830     0.0170 hc         1 7CW       0.041200
     83 H40        -11.1080    -0.5940     1.4910 hc         1 7CW       0.034700
     84 H41         -9.5150    -1.2400     1.8550 hc         1 7CW       0.034700
     85 H42         -9.9070     0.4190     2.2770 hc         1 7CW       0.034700
     86 H43         -7.7850     0.6610    -0.9190 hc         1 7CW       0.048700
     87 H44         -7.9850     2.3090     0.8490 hc         1 7CW       0.039200
     88 H45         -7.8180     1.0880     2.0850 hc         1 7CW       0.039200
     89 H46         -5.7320     1.9730     0.0380 hc         1 7CW       0.040700
     90 H47         -5.7170     2.2750     1.7630 hc         1 7CW       0.040700
     91 H48         -6.4530    -0.5230     2.8460 hc         1 7CW       0.032367
     92 H49         -4.8620    -1.2520     2.7500 hc         1 7CW       0.032367
     93 H50         -5.0440     0.3930     3.3390 hc         1 7CW       0.032367
@<TRIPOS>BOND
     1     1     2 1   
     2     1    44 1   
     3     1    45 1   
     4     1    46 1   
     5     2     3 1   
     6     2    23 1   
     7     2    47 1   
     8     3     4 1   
     9     3    48 1   
    10     3    49 1   
    11     4     5 1   
    12     4    50 1   
    13     4    51 1   
    14     5     6 2   
    15     5     7 1   
    16     7     8 1   
    17     7    52 1   
    18     8     9 1   
    19     8    53 1   
    20     8    54 1   
    21     9    10 1   
    22     9    55 1   
    23     9    56 1   
    24    10    11 1   
    25    10    57 1   
    26    11    12 2   
    27    11    13 1   
    28    13    14 1   
    29    14    15 1   
    30    14    58 1   
    31    14    59 1   
    32    15    16 ar  
    33    15    22 ar  
    34    16    17 ar  
    35    16    60 1   
    36    17    18 1   
    37    17    19 ar  
    38    19    20 ar  
    39    19    61 1   
    40    20    21 1   
    41    20    22 ar  
    42    22    62 1   
    43    23    24 1   
    44    23    42 1   
    45    23    63 1   
    46    24    25 1   
    47    24    64 1   
    48    24    65 1   
    49    25    26 1   
    50    25    66 1   
    51    25    67 1   
    52    26    27 1   
    53    26    42 1   
    54    26    68 1   
    55    27    28 1   
    56    27    39 1   
    57    27    69 1   
    58    28    29 1   
    59    28    30 1   
    60    28    70 1   
    61    29    71 1   
    62    30    31 1   
    63    30    72 1   
    64    30    73 1   
    65    31    32 1   
    66    31    37 1   
    67    31    74 1   
    68    32    33 1   
    69    32    75 1   
    70    32    76 1   
    71    33    34 1   
    72    33    35 1   
    73    33    77 1   
    74    34    78 1   
    75    35    36 1   
    76    35    79 1   
    77    35    80 1   
    78    36    37 1   
    79    36    81 1   
    80    36    82 1   
    81    37    38 1   
    82    37    39 1   
    83    38    83 1   
    84    38    84 1   
    85    38    85 1   
    86    39    40 1   
    87    39    86 1   
    88    40    41 1   
    89    40    87 1   
    90    40    88 1   
    91    41    42 1   
    92    41    89 1   
    93    41    90 1   
    94    42    43 1   
    95    43    91 1   
    96    43    92 1   
    97    43    93 1   
@<TRIPOS>SUBSTRUCTURE
     1 7CW         1 TEMP              0 ****  ****    0 ROOT
